
  OWA STORM WATER MANAGEMENT MODEL - VERSION v5.1.14 (OWA 2022-07-31)
  --------------------------------------------------------------

  
  *********************************************************
  NOTE: The summary statistics displayed in this report are
  based on results found at every computational time step,  
  not just on results from each reporting time step.
  *********************************************************
  
  ****************
  Analysis Options
  ****************
  Flow Units ............... CMS
  Process Models:
    Rainfall/Runoff ........ NO
    RDII ................... NO
    Snowmelt ............... NO
    Groundwater ............ NO
    Flow Routing ........... YES
    Ponding Allowed ........ NO
    Water Quality .......... NO
  Flow Routing Method ...... DYNWAVE
  Surcharge Method ......... EXTRAN
  Starting Date ............ 09/08/2022 00:00:00
  Ending Date .............. 09/08/2022 06:00:01
  Antecedent Dry Days ...... 0.0
  Report Time Step ......... 00:00:01
  Routing Time Step ........ 1.00 sec
  Variable Time Step ....... YES
  Maximum Trials ........... 8
  Number of Threads ........ 1
  Head Tolerance ........... 0.001500 m
  
  
  ************
  Node Results
  ************
  
  <<< Node Inlet_1 >>>
  ----------------------------------------------------------------
                           Inflow  Flooding     Depth      Head
  Date        Time            CMS       CMS    meters    meters
  ----------------------------------------------------------------
   09/08/2022 00:00:01      0.000     0.000     0.000    37.500
   09/08/2022 00:00:02      0.025     0.000     0.011    37.511
   09/08/2022 00:00:03      0.062     0.000     0.043    37.543
   09/08/2022 00:00:04      0.084     0.000     0.085    37.585
   09/08/2022 00:00:05      0.103     0.000     0.116    37.616
   09/08/2022 00:00:06      0.121     0.000     0.131    37.631
   09/08/2022 00:00:07      0.136     0.000     0.131    37.631
   09/08/2022 00:00:08      0.151     0.000     0.125    37.625
   09/08/2022 00:00:09      0.156     0.000     0.122    37.622
   09/08/2022 00:00:10      0.160     0.000     0.123    37.623
   09/08/2022 00:00:11      0.168     0.000     0.127    37.627
   09/08/2022 00:00:12      0.176     0.000     0.133    37.633
   09/08/2022 00:00:13      0.180     0.000     0.135    37.635
   09/08/2022 00:00:14      0.180     0.000     0.132    37.632
   09/08/2022 00:00:15      0.181     0.000     0.132    37.632
   09/08/2022 00:00:16      0.181     0.000     0.132    37.632
   09/08/2022 00:00:17      0.181     0.000     0.132    37.632
   09/08/2022 00:00:18      0.180     0.000     0.132    37.632
   09/08/2022 00:00:19      0.180     0.000     0.132    37.632
   09/08/2022 00:00:20      0.179     0.000     0.132    37.632
   09/08/2022 00:00:21      0.179     0.000     0.132    37.632
   09/08/2022 00:00:22      0.178     0.000     0.131    37.631
   09/08/2022 00:00:23      0.178     0.000     0.131    37.631
   09/08/2022 00:00:24      0.177     0.000     0.131    37.631
   09/08/2022 00:00:25      0.176     0.000     0.130    37.630
   09/08/2022 00:00:26      0.175     0.000     0.130    37.630
   09/08/2022 00:00:27      0.175     0.000     0.130    37.630
   09/08/2022 00:00:28      0.174     0.000     0.130    37.630
   09/08/2022 00:00:29      0.174     0.000     0.129    37.629
   09/08/2022 00:00:30      0.173     0.000     0.129    37.629
   09/08/2022 00:00:31      0.173     0.000     0.129    37.629
   09/08/2022 00:00:32      0.173     0.000     0.129    37.629
   09/08/2022 00:00:33      0.172     0.000     0.129    37.629
   09/08/2022 00:00:34      0.172     0.000     0.129    37.629
   09/08/2022 00:00:35      0.172     0.000     0.129    37.629
   09/08/2022 00:00:36      0.172     0.000     0.129    37.629
   09/08/2022 00:00:37      0.172     0.000     0.129    37.629
   09/08/2022 00:00:38      0.172     0.000     0.129    37.629
   09/08/2022 00:00:39      0.172     0.000     0.129    37.629
   09/08/2022 00:00:40      0.172     0.000     0.129    37.629
   09/08/2022 00:00:41      0.172     0.000     0.129    37.629
   09/08/2022 00:00:42      0.172     0.000     0.129    37.629
   09/08/2022 00:00:43      0.172     0.000     0.129    37.629
   09/08/2022 00:00:44      0.172     0.000     0.129    37.629
   09/08/2022 00:00:45      0.172     0.000     0.129    37.629
   09/08/2022 00:00:46      0.172     0.000     0.129    37.629
   09/08/2022 00:00:47      0.172     0.000     0.129    37.629
   09/08/2022 00:00:48      0.172     0.000     0.129    37.629
   09/08/2022 00:00:49      0.172     0.000     0.129    37.629
   09/08/2022 00:00:50      0.172     0.000     0.129    37.629
   09/08/2022 00:00:51      0.172     0.000     0.129    37.629
   09/08/2022 00:00:52      0.172     0.000     0.129    37.629
   09/08/2022 00:00:53      0.172     0.000     0.129    37.629
   09/08/2022 00:00:54      0.172     0.000     0.129    37.629
   09/08/2022 00:00:55      0.172     0.000     0.129    37.629
   09/08/2022 00:00:56      0.172     0.000     0.129    37.629
   09/08/2022 00:00:57      0.172     0.000     0.129    37.629
   09/08/2022 00:00:58      0.172     0.000     0.129    37.629
   09/08/2022 00:00:59      0.172     0.000     0.129    37.629
   09/08/2022 00:01:00      0.172     0.000     0.129    37.629
   09/08/2022 00:01:01      0.172     0.000     0.129    37.629
   09/08/2022 00:01:02      0.172     0.000     0.129    37.629
   09/08/2022 00:01:03      0.172     0.000     0.129    37.629
   09/08/2022 00:01:04      0.172     0.000     0.129    37.629
   09/08/2022 00:01:05      0.172     0.000     0.129    37.629
   09/08/2022 00:01:06      0.172     0.000     0.129    37.629
   09/08/2022 00:01:07      0.172     0.000     0.129    37.629
   09/08/2022 00:01:08      0.172     0.000     0.129    37.629
   09/08/2022 00:01:09      0.172     0.000     0.129    37.629
   09/08/2022 00:01:10      0.172     0.000     0.129    37.629
   09/08/2022 00:01:11      0.172     0.000     0.129    37.629
   09/08/2022 00:01:12      0.172     0.000     0.129    37.629
   09/08/2022 00:01:13      0.172     0.000     0.129    37.629
   09/08/2022 00:01:14      0.172     0.000     0.129    37.629
   09/08/2022 00:01:15      0.172     0.000     0.129    37.629
   09/08/2022 00:01:16      0.172     0.000     0.129    37.629
   09/08/2022 00:01:17      0.172     0.000     0.129    37.629
   09/08/2022 00:01:18      0.172     0.000     0.129    37.629
   09/08/2022 00:01:19      0.172     0.000     0.129    37.629
   09/08/2022 00:01:20      0.172     0.000     0.129    37.629
   09/08/2022 00:01:21      0.172     0.000     0.129    37.629
   09/08/2022 00:01:22      0.172     0.000     0.129    37.629
   09/08/2022 00:01:23      0.172     0.000     0.129    37.629
   09/08/2022 00:01:24      0.172     0.000     0.129    37.629
   09/08/2022 00:01:25      0.172     0.000     0.129    37.629
   09/08/2022 00:01:26      0.172     0.000     0.129    37.629
   09/08/2022 00:01:27      0.172     0.000     0.129    37.629
   09/08/2022 00:01:28      0.172     0.000     0.129    37.629
   09/08/2022 00:01:29      0.172     0.000     0.129    37.629
   09/08/2022 00:01:30      0.172     0.000     0.129    37.629
   09/08/2022 00:01:31      0.172     0.000     0.129    37.629
   09/08/2022 00:01:32      0.172     0.000     0.129    37.629
   09/08/2022 00:01:33      0.172     0.000     0.129    37.629
   09/08/2022 00:01:34      0.172     0.000     0.129    37.629
   09/08/2022 00:01:35      0.172     0.000     0.129    37.629
   09/08/2022 00:01:36      0.172     0.000     0.129    37.629
   09/08/2022 00:01:37      0.172     0.000     0.129    37.629
   09/08/2022 00:01:38      0.172     0.000     0.129    37.629
   09/08/2022 00:01:39      0.172     0.000     0.129    37.629
   09/08/2022 00:01:40      0.172     0.000     0.129    37.629
   09/08/2022 00:01:41      0.172     0.000     0.129    37.629
   09/08/2022 00:01:42      0.172     0.000     0.129    37.629
   09/08/2022 00:01:43      0.172     0.000     0.129    37.629
   09/08/2022 00:01:44      0.172     0.000     0.129    37.629
   09/08/2022 00:01:45      0.172     0.000     0.129    37.629
   09/08/2022 00:01:46      0.172     0.000     0.129    37.629
   09/08/2022 00:01:47      0.172     0.000     0.129    37.629
   09/08/2022 00:01:48      0.172     0.000     0.129    37.629
   09/08/2022 00:01:49      0.172     0.000     0.129    37.629
   09/08/2022 00:01:50      0.172     0.000     0.129    37.629
   09/08/2022 00:01:51      0.172     0.000     0.129    37.629
   09/08/2022 00:01:52      0.172     0.000     0.129    37.629
   09/08/2022 00:01:53      0.172     0.000     0.129    37.629
   09/08/2022 00:01:54      0.172     0.000     0.129    37.629
   09/08/2022 00:01:55      0.172     0.000     0.129    37.629
   09/08/2022 00:01:56      0.172     0.000     0.129    37.629
   09/08/2022 00:01:57      0.172     0.000     0.129    37.629
   09/08/2022 00:01:58      0.172     0.000     0.129    37.629
   09/08/2022 00:01:59      0.172     0.000     0.129    37.629
   09/08/2022 00:02:00      0.172     0.000     0.129    37.629
   09/08/2022 00:02:01      0.172     0.000     0.129    37.629
   09/08/2022 00:02:02      0.172     0.000     0.129    37.629
   09/08/2022 00:02:03      0.172     0.000     0.129    37.629
   09/08/2022 00:02:04      0.172     0.000     0.129    37.629
   09/08/2022 00:02:05      0.172     0.000     0.129    37.629
   09/08/2022 00:02:06      0.172     0.000     0.129    37.629
   09/08/2022 00:02:07      0.172     0.000     0.129    37.629
   09/08/2022 00:02:08      0.172     0.000     0.129    37.629
   09/08/2022 00:02:09      0.172     0.000     0.129    37.629
   09/08/2022 00:02:10      0.172     0.000     0.129    37.629
   09/08/2022 00:02:11      0.172     0.000     0.129    37.629
   09/08/2022 00:02:12      0.172     0.000     0.129    37.629
   09/08/2022 00:02:13      0.172     0.000     0.129    37.629
   09/08/2022 00:02:14      0.172     0.000     0.129    37.629
   09/08/2022 00:02:15      0.172     0.000     0.129    37.629
   09/08/2022 00:02:16      0.172     0.000     0.129    37.629
  
  
  <<< Node Inlet_2 >>>
  ----------------------------------------------------------------
                           Inflow  Flooding     Depth      Head
  Date        Time            CMS       CMS    meters    meters
  ----------------------------------------------------------------
   09/08/2022 00:00:01      0.000     0.000     0.000    36.400
   09/08/2022 00:00:02      0.000     0.000     0.000    36.400
   09/08/2022 00:00:03      0.011     0.000     0.005    36.405
   09/08/2022 00:00:04      0.040     0.000     0.019    36.419
   09/08/2022 00:00:05      0.077     0.000     0.043    36.443
   09/08/2022 00:00:06      0.114     0.000     0.072    36.472
   09/08/2022 00:00:07      0.153     0.000     0.103    36.503
   09/08/2022 00:00:08      0.176     0.000     0.130    36.530
   09/08/2022 00:00:09      0.178     0.000     0.144    36.544
   09/08/2022 00:00:10      0.187     0.000     0.144    36.544
   09/08/2022 00:00:11      0.198     0.000     0.137    36.537
   09/08/2022 00:00:12      0.219     0.000     0.135    36.535
   09/08/2022 00:00:13      0.234     0.000     0.139    36.539
   09/08/2022 00:00:14      0.238     0.000     0.143    36.543
   09/08/2022 00:00:15      0.237     0.000     0.144    36.544
   09/08/2022 00:00:16      0.240     0.000     0.144    36.544
   09/08/2022 00:00:17      0.241     0.000     0.145    36.545
   09/08/2022 00:00:18      0.241     0.000     0.145    36.545
   09/08/2022 00:00:19      0.240     0.000     0.145    36.545
   09/08/2022 00:00:20      0.239     0.000     0.145    36.545
   09/08/2022 00:00:21      0.238     0.000     0.144    36.544
   09/08/2022 00:00:22      0.235     0.000     0.144    36.544
   09/08/2022 00:00:23      0.234     0.000     0.143    36.543
   09/08/2022 00:00:24      0.231     0.000     0.142    36.542
   09/08/2022 00:00:25      0.230     0.000     0.142    36.542
   09/08/2022 00:00:26      0.227     0.000     0.141    36.541
   09/08/2022 00:00:27      0.225     0.000     0.140    36.540
   09/08/2022 00:00:28      0.222     0.000     0.139    36.539
   09/08/2022 00:00:29      0.220     0.000     0.138    36.538
   09/08/2022 00:00:30      0.218     0.000     0.138    36.538
   09/08/2022 00:00:31      0.216     0.000     0.137    36.537
   09/08/2022 00:00:32      0.215     0.000     0.136    36.536
   09/08/2022 00:00:33      0.213     0.000     0.136    36.536
   09/08/2022 00:00:34      0.212     0.000     0.136    36.536
   09/08/2022 00:00:35      0.211     0.000     0.135    36.535
   09/08/2022 00:00:36      0.211     0.000     0.135    36.535
   09/08/2022 00:00:37      0.211     0.000     0.135    36.535
   09/08/2022 00:00:38      0.211     0.000     0.135    36.535
   09/08/2022 00:00:39      0.211     0.000     0.135    36.535
   09/08/2022 00:00:40      0.211     0.000     0.135    36.535
   09/08/2022 00:00:41      0.211     0.000     0.135    36.535
   09/08/2022 00:00:42      0.211     0.000     0.135    36.535
   09/08/2022 00:00:43      0.212     0.000     0.135    36.535
   09/08/2022 00:00:44      0.212     0.000     0.135    36.535
   09/08/2022 00:00:45      0.212     0.000     0.135    36.535
   09/08/2022 00:00:46      0.213     0.000     0.135    36.535
   09/08/2022 00:00:47      0.213     0.000     0.136    36.536
   09/08/2022 00:00:48      0.213     0.000     0.136    36.536
   09/08/2022 00:00:49      0.213     0.000     0.136    36.536
   09/08/2022 00:00:50      0.213     0.000     0.136    36.536
   09/08/2022 00:00:51      0.213     0.000     0.136    36.536
   09/08/2022 00:00:52      0.214     0.000     0.136    36.536
   09/08/2022 00:00:53      0.214     0.000     0.136    36.536
   09/08/2022 00:00:54      0.214     0.000     0.136    36.536
   09/08/2022 00:00:55      0.214     0.000     0.136    36.536
   09/08/2022 00:00:56      0.214     0.000     0.136    36.536
   09/08/2022 00:00:57      0.214     0.000     0.136    36.536
   09/08/2022 00:00:58      0.213     0.000     0.136    36.536
   09/08/2022 00:00:59      0.213     0.000     0.136    36.536
   09/08/2022 00:01:00      0.213     0.000     0.136    36.536
   09/08/2022 00:01:01      0.213     0.000     0.136    36.536
   09/08/2022 00:01:02      0.213     0.000     0.136    36.536
   09/08/2022 00:01:03      0.213     0.000     0.136    36.536
   09/08/2022 00:01:04      0.213     0.000     0.136    36.536
   09/08/2022 00:01:05      0.213     0.000     0.136    36.536
   09/08/2022 00:01:06      0.213     0.000     0.136    36.536
   09/08/2022 00:01:07      0.213     0.000     0.136    36.536
   09/08/2022 00:01:08      0.213     0.000     0.136    36.536
   09/08/2022 00:01:09      0.213     0.000     0.136    36.536
   09/08/2022 00:01:10      0.213     0.000     0.136    36.536
   09/08/2022 00:01:11      0.213     0.000     0.136    36.536
   09/08/2022 00:01:12      0.213     0.000     0.136    36.536
   09/08/2022 00:01:13      0.213     0.000     0.136    36.536
   09/08/2022 00:01:14      0.213     0.000     0.136    36.536
   09/08/2022 00:01:15      0.213     0.000     0.136    36.536
   09/08/2022 00:01:16      0.213     0.000     0.136    36.536
   09/08/2022 00:01:17      0.213     0.000     0.136    36.536
   09/08/2022 00:01:18      0.213     0.000     0.136    36.536
   09/08/2022 00:01:19      0.213     0.000     0.136    36.536
   09/08/2022 00:01:20      0.213     0.000     0.136    36.536
   09/08/2022 00:01:21      0.213     0.000     0.136    36.536
   09/08/2022 00:01:22      0.213     0.000     0.136    36.536
   09/08/2022 00:01:23      0.213     0.000     0.136    36.536
   09/08/2022 00:01:24      0.213     0.000     0.136    36.536
   09/08/2022 00:01:25      0.213     0.000     0.136    36.536
   09/08/2022 00:01:26      0.213     0.000     0.136    36.536
   09/08/2022 00:01:27      0.213     0.000     0.136    36.536
   09/08/2022 00:01:28      0.213     0.000     0.136    36.536
   09/08/2022 00:01:29      0.213     0.000     0.136    36.536
   09/08/2022 00:01:30      0.213     0.000     0.136    36.536
   09/08/2022 00:01:31      0.213     0.000     0.136    36.536
   09/08/2022 00:01:32      0.213     0.000     0.136    36.536
   09/08/2022 00:01:33      0.213     0.000     0.136    36.536
   09/08/2022 00:01:34      0.213     0.000     0.136    36.536
   09/08/2022 00:01:35      0.213     0.000     0.136    36.536
   09/08/2022 00:01:36      0.213     0.000     0.136    36.536
   09/08/2022 00:01:37      0.213     0.000     0.136    36.536
   09/08/2022 00:01:38      0.213     0.000     0.136    36.536
   09/08/2022 00:01:39      0.213     0.000     0.136    36.536
   09/08/2022 00:01:40      0.213     0.000     0.136    36.536
   09/08/2022 00:01:41      0.213     0.000     0.136    36.536
   09/08/2022 00:01:42      0.213     0.000     0.136    36.536
   09/08/2022 00:01:43      0.213     0.000     0.136    36.536
   09/08/2022 00:01:44      0.213     0.000     0.136    36.536
   09/08/2022 00:01:45      0.213     0.000     0.136    36.536
   09/08/2022 00:01:46      0.213     0.000     0.136    36.536
   09/08/2022 00:01:47      0.213     0.000     0.136    36.536
   09/08/2022 00:01:48      0.213     0.000     0.136    36.536
   09/08/2022 00:01:49      0.213     0.000     0.136    36.536
   09/08/2022 00:01:50      0.213     0.000     0.136    36.536
   09/08/2022 00:01:51      0.213     0.000     0.136    36.536
   09/08/2022 00:01:52      0.213     0.000     0.136    36.536
   09/08/2022 00:01:53      0.213     0.000     0.136    36.536
   09/08/2022 00:01:54      0.213     0.000     0.136    36.536
   09/08/2022 00:01:55      0.213     0.000     0.136    36.536
   09/08/2022 00:01:56      0.213     0.000     0.136    36.536
   09/08/2022 00:01:57      0.213     0.000     0.136    36.536
   09/08/2022 00:01:58      0.213     0.000     0.136    36.536
   09/08/2022 00:01:59      0.213     0.000     0.136    36.536
   09/08/2022 00:02:00      0.213     0.000     0.136    36.536
   09/08/2022 00:02:01      0.213     0.000     0.136    36.536
   09/08/2022 00:02:02      0.213     0.000     0.136    36.536
   09/08/2022 00:02:03      0.213     0.000     0.136    36.536
   09/08/2022 00:02:04      0.213     0.000     0.136    36.536
   09/08/2022 00:02:05      0.213     0.000     0.136    36.536
   09/08/2022 00:02:06      0.213     0.000     0.136    36.536
   09/08/2022 00:02:07      0.213     0.000     0.136    36.536
   09/08/2022 00:02:08      0.213     0.000     0.136    36.536
   09/08/2022 00:02:09      0.213     0.000     0.136    36.536
   09/08/2022 00:02:10      0.213     0.000     0.136    36.536
   09/08/2022 00:02:11      0.213     0.000     0.136    36.536
   09/08/2022 00:02:12      0.213     0.000     0.136    36.536
   09/08/2022 00:02:13      0.213     0.000     0.136    36.536
   09/08/2022 00:02:14      0.213     0.000     0.136    36.536
   09/08/2022 00:02:15      0.213     0.000     0.136    36.536
   09/08/2022 00:02:16      0.213     0.000     0.136    36.536
  
  
  <<< Node Inlet_3 >>>
  ----------------------------------------------------------------
                           Inflow  Flooding     Depth      Head
  Date        Time            CMS       CMS    meters    meters
  ----------------------------------------------------------------
   09/08/2022 00:00:01      0.000     0.000     0.000    34.500
   09/08/2022 00:00:02      0.000     0.000     0.000    34.500
   09/08/2022 00:00:03      0.000     0.000     0.000    34.500
   09/08/2022 00:00:04      0.003     0.000     0.001    34.501
   09/08/2022 00:00:05      0.013     0.000     0.006    34.506
   09/08/2022 00:00:06      0.034     0.000     0.018    34.518
   09/08/2022 00:00:07      0.060     0.000     0.034    34.534
   09/08/2022 00:00:08      0.105     0.000     0.058    34.558
   09/08/2022 00:00:09      0.164     0.000     0.089    34.589
   09/08/2022 00:00:10      0.213     0.000     0.125    34.625
   09/08/2022 00:00:11      0.217     0.000     0.161    34.661
   09/08/2022 00:00:12      0.209     0.000     0.188    34.688
   09/08/2022 00:00:13      0.218     0.000     0.210    34.710
   09/08/2022 00:00:14      0.231     0.000     0.229    34.729
   09/08/2022 00:00:15      0.238     0.000     0.246    34.746
   09/08/2022 00:00:16      0.239     0.000     0.260    34.760
   09/08/2022 00:00:17      0.239     0.000     0.269    34.769
   09/08/2022 00:00:18      0.241     0.000     0.275    34.775
   09/08/2022 00:00:19      0.241     0.000     0.278    34.778
   09/08/2022 00:00:20      0.244     0.000     0.279    34.779
   09/08/2022 00:00:21      0.243     0.000     0.279    34.779
   09/08/2022 00:00:22      0.247     0.000     0.278    34.778
   09/08/2022 00:00:23      0.246     0.000     0.276    34.776
   09/08/2022 00:00:24      0.249     0.000     0.275    34.775
   09/08/2022 00:00:25      0.249     0.000     0.273    34.773
   09/08/2022 00:00:26      0.250     0.000     0.271    34.771
   09/08/2022 00:00:27      0.249     0.000     0.270    34.770
   09/08/2022 00:00:28      0.248     0.000     0.268    34.768
   09/08/2022 00:00:29      0.247     0.000     0.267    34.767
   09/08/2022 00:00:30      0.245     0.000     0.265    34.765
   09/08/2022 00:00:31      0.243     0.000     0.263    34.763
   09/08/2022 00:00:32      0.242     0.000     0.262    34.762
   09/08/2022 00:00:33      0.239     0.000     0.260    34.760
   09/08/2022 00:00:34      0.238     0.000     0.258    34.758
   09/08/2022 00:00:35      0.235     0.000     0.256    34.756
   09/08/2022 00:00:36      0.234     0.000     0.254    34.754
   09/08/2022 00:00:37      0.231     0.000     0.252    34.752
   09/08/2022 00:00:38      0.230     0.000     0.250    34.750
   09/08/2022 00:00:39      0.228     0.000     0.249    34.749
   09/08/2022 00:00:40      0.228     0.000     0.247    34.747
   09/08/2022 00:00:41      0.227     0.000     0.246    34.746
   09/08/2022 00:00:42      0.227     0.000     0.245    34.745
   09/08/2022 00:00:43      0.226     0.000     0.244    34.744
   09/08/2022 00:00:44      0.226     0.000     0.243    34.743
   09/08/2022 00:00:45      0.225     0.000     0.242    34.742
   09/08/2022 00:00:46      0.225     0.000     0.241    34.741
   09/08/2022 00:00:47      0.224     0.000     0.241    34.741
   09/08/2022 00:00:48      0.224     0.000     0.240    34.740
   09/08/2022 00:00:49      0.224     0.000     0.240    34.740
   09/08/2022 00:00:50      0.223     0.000     0.240    34.740
   09/08/2022 00:00:51      0.223     0.000     0.239    34.739
   09/08/2022 00:00:52      0.223     0.000     0.239    34.739
   09/08/2022 00:00:53      0.223     0.000     0.239    34.739
   09/08/2022 00:00:54      0.223     0.000     0.239    34.739
   09/08/2022 00:00:55      0.223     0.000     0.239    34.739
   09/08/2022 00:00:56      0.223     0.000     0.239    34.739
   09/08/2022 00:00:57      0.223     0.000     0.239    34.739
   09/08/2022 00:00:58      0.224     0.000     0.239    34.739
   09/08/2022 00:00:59      0.224     0.000     0.239    34.739
   09/08/2022 00:01:00      0.225     0.000     0.239    34.739
   09/08/2022 00:01:01      0.225     0.000     0.240    34.740
   09/08/2022 00:01:02      0.226     0.000     0.240    34.740
   09/08/2022 00:01:03      0.226     0.000     0.241    34.741
   09/08/2022 00:01:04      0.226     0.000     0.241    34.741
   09/08/2022 00:01:05      0.226     0.000     0.241    34.741
   09/08/2022 00:01:06      0.227     0.000     0.242    34.742
   09/08/2022 00:01:07      0.227     0.000     0.242    34.742
   09/08/2022 00:01:08      0.227     0.000     0.242    34.742
   09/08/2022 00:01:09      0.227     0.000     0.242    34.742
   09/08/2022 00:01:10      0.226     0.000     0.242    34.742
   09/08/2022 00:01:11      0.226     0.000     0.242    34.742
   09/08/2022 00:01:12      0.226     0.000     0.242    34.742
   09/08/2022 00:01:13      0.226     0.000     0.242    34.742
   09/08/2022 00:01:14      0.226     0.000     0.242    34.742
   09/08/2022 00:01:15      0.225     0.000     0.242    34.742
   09/08/2022 00:01:16      0.225     0.000     0.242    34.742
   09/08/2022 00:01:17      0.225     0.000     0.242    34.742
   09/08/2022 00:01:18      0.225     0.000     0.241    34.741
   09/08/2022 00:01:19      0.225     0.000     0.241    34.741
   09/08/2022 00:01:20      0.225     0.000     0.241    34.741
   09/08/2022 00:01:21      0.225     0.000     0.241    34.741
   09/08/2022 00:01:22      0.225     0.000     0.241    34.741
   09/08/2022 00:01:23      0.225     0.000     0.241    34.741
   09/08/2022 00:01:24      0.225     0.000     0.241    34.741
   09/08/2022 00:01:25      0.225     0.000     0.241    34.741
   09/08/2022 00:01:26      0.225     0.000     0.241    34.741
   09/08/2022 00:01:27      0.225     0.000     0.241    34.741
   09/08/2022 00:01:28      0.225     0.000     0.241    34.741
   09/08/2022 00:01:29      0.225     0.000     0.241    34.741
   09/08/2022 00:01:30      0.225     0.000     0.241    34.741
   09/08/2022 00:01:31      0.225     0.000     0.241    34.741
   09/08/2022 00:01:32      0.226     0.000     0.241    34.741
   09/08/2022 00:01:33      0.226     0.000     0.241    34.741
   09/08/2022 00:01:34      0.226     0.000     0.241    34.741
   09/08/2022 00:01:35      0.226     0.000     0.241    34.741
   09/08/2022 00:01:36      0.225     0.000     0.241    34.741
   09/08/2022 00:01:37      0.225     0.000     0.241    34.741
   09/08/2022 00:01:38      0.225     0.000     0.241    34.741
   09/08/2022 00:01:39      0.225     0.000     0.241    34.741
   09/08/2022 00:01:40      0.225     0.000     0.241    34.741
   09/08/2022 00:01:41      0.225     0.000     0.241    34.741
   09/08/2022 00:01:42      0.225     0.000     0.241    34.741
   09/08/2022 00:01:43      0.225     0.000     0.240    34.740
   09/08/2022 00:01:44      0.225     0.000     0.240    34.740
   09/08/2022 00:01:45      0.225     0.000     0.240    34.740
   09/08/2022 00:01:46      0.225     0.000     0.240    34.740
   09/08/2022 00:01:47      0.225     0.000     0.240    34.740
   09/08/2022 00:01:48      0.225     0.000     0.240    34.740
   09/08/2022 00:01:49      0.225     0.000     0.240    34.740
   09/08/2022 00:01:50      0.225     0.000     0.240    34.740
   09/08/2022 00:01:51      0.225     0.000     0.240    34.740
   09/08/2022 00:01:52      0.225     0.000     0.240    34.740
   09/08/2022 00:01:53      0.225     0.000     0.240    34.740
   09/08/2022 00:01:54      0.225     0.000     0.240    34.740
   09/08/2022 00:01:55      0.225     0.000     0.240    34.740
   09/08/2022 00:01:56      0.225     0.000     0.240    34.740
   09/08/2022 00:01:57      0.225     0.000     0.240    34.740
   09/08/2022 00:01:58      0.225     0.000     0.240    34.740
   09/08/2022 00:01:59      0.225     0.000     0.240    34.740
   09/08/2022 00:02:00      0.225     0.000     0.240    34.740
   09/08/2022 00:02:01      0.225     0.000     0.240    34.740
   09/08/2022 00:02:02      0.225     0.000     0.240    34.740
   09/08/2022 00:02:03      0.225     0.000     0.240    34.740
   09/08/2022 00:02:04      0.225     0.000     0.240    34.740
   09/08/2022 00:02:05      0.225     0.000     0.240    34.740
   09/08/2022 00:02:06      0.225     0.000     0.240    34.740
   09/08/2022 00:02:07      0.225     0.000     0.240    34.740
   09/08/2022 00:02:08      0.225     0.000     0.240    34.740
   09/08/2022 00:02:09      0.225     0.000     0.240    34.740
   09/08/2022 00:02:10      0.225     0.000     0.240    34.740
   09/08/2022 00:02:11      0.225     0.000     0.240    34.740
   09/08/2022 00:02:12      0.225     0.000     0.240    34.740
   09/08/2022 00:02:13      0.225     0.000     0.240    34.740
   09/08/2022 00:02:14      0.225     0.000     0.240    34.740
   09/08/2022 00:02:15      0.225     0.000     0.240    34.740
   09/08/2022 00:02:16      0.225     0.000     0.240    34.740
  
  
  <<< Node Inlet_4 >>>
  ----------------------------------------------------------------
                           Inflow  Flooding     Depth      Head
  Date        Time            CMS       CMS    meters    meters
  ----------------------------------------------------------------
   09/08/2022 00:00:01      0.000     0.000     0.000    33.400
   09/08/2022 00:00:02      0.000     0.000     0.000    33.400
   09/08/2022 00:00:03      0.000     0.000     0.000    33.400
   09/08/2022 00:00:04      0.000     0.000     0.000    33.400
   09/08/2022 00:00:05      0.000     0.000     0.000    33.400
   09/08/2022 00:00:06      0.001     0.000     0.000    33.400
   09/08/2022 00:00:07      0.003     0.000     0.002    33.402
   09/08/2022 00:00:08      0.010     0.000     0.005    33.405
   09/08/2022 00:00:09      0.025     0.000     0.011    33.411
   09/08/2022 00:00:10      0.046     0.000     0.019    33.419
   09/08/2022 00:00:11      0.079     0.000     0.031    33.431
   09/08/2022 00:00:12      0.114     0.000     0.046    33.446
   09/08/2022 00:00:13      0.134     0.000     0.063    33.463
   09/08/2022 00:00:14      0.153     0.000     0.079    33.479
   09/08/2022 00:00:15      0.174     0.000     0.094    33.494
   09/08/2022 00:00:16      0.194     0.000     0.109    33.509
   09/08/2022 00:00:17      0.211     0.000     0.122    33.522
   09/08/2022 00:00:18      0.225     0.000     0.133    33.533
   09/08/2022 00:00:19      0.236     0.000     0.143    33.543
   09/08/2022 00:00:20      0.244     0.000     0.150    33.550
   09/08/2022 00:00:21      0.249     0.000     0.156    33.556
   09/08/2022 00:00:22      0.253     0.000     0.160    33.560
   09/08/2022 00:00:23      0.255     0.000     0.163    33.563
   09/08/2022 00:00:24      0.256     0.000     0.164    33.564
   09/08/2022 00:00:25      0.256     0.000     0.165    33.565
   09/08/2022 00:00:26      0.256     0.000     0.165    33.565
   09/08/2022 00:00:27      0.256     0.000     0.165    33.565
   09/08/2022 00:00:28      0.255     0.000     0.165    33.565
   09/08/2022 00:00:29      0.254     0.000     0.165    33.565
   09/08/2022 00:00:30      0.252     0.000     0.164    33.564
   09/08/2022 00:00:31      0.251     0.000     0.164    33.564
   09/08/2022 00:00:32      0.249     0.000     0.163    33.563
   09/08/2022 00:00:33      0.247     0.000     0.163    33.563
   09/08/2022 00:00:34      0.245     0.000     0.162    33.562
   09/08/2022 00:00:35      0.243     0.000     0.161    33.561
   09/08/2022 00:00:36      0.241     0.000     0.161    33.561
   09/08/2022 00:00:37      0.239     0.000     0.160    33.560
   09/08/2022 00:00:38      0.237     0.000     0.159    33.559
   09/08/2022 00:00:39      0.236     0.000     0.159    33.559
   09/08/2022 00:00:40      0.234     0.000     0.158    33.558
   09/08/2022 00:00:41      0.232     0.000     0.157    33.557
   09/08/2022 00:00:42      0.231     0.000     0.157    33.557
   09/08/2022 00:00:43      0.230     0.000     0.156    33.556
   09/08/2022 00:00:44      0.229     0.000     0.156    33.556
   09/08/2022 00:00:45      0.228     0.000     0.155    33.555
   09/08/2022 00:00:46      0.227     0.000     0.155    33.555
   09/08/2022 00:00:47      0.226     0.000     0.154    33.554
   09/08/2022 00:00:48      0.226     0.000     0.154    33.554
   09/08/2022 00:00:49      0.225     0.000     0.154    33.554
   09/08/2022 00:00:50      0.225     0.000     0.154    33.554
   09/08/2022 00:00:51      0.224     0.000     0.153    33.553
   09/08/2022 00:00:52      0.224     0.000     0.153    33.553
   09/08/2022 00:00:53      0.223     0.000     0.153    33.553
   09/08/2022 00:00:54      0.223     0.000     0.153    33.553
   09/08/2022 00:00:55      0.223     0.000     0.153    33.553
   09/08/2022 00:00:56      0.223     0.000     0.153    33.553
   09/08/2022 00:00:57      0.223     0.000     0.153    33.553
   09/08/2022 00:00:58      0.223     0.000     0.153    33.553
   09/08/2022 00:00:59      0.223     0.000     0.153    33.553
   09/08/2022 00:01:00      0.223     0.000     0.153    33.553
   09/08/2022 00:01:01      0.224     0.000     0.153    33.553
   09/08/2022 00:01:02      0.224     0.000     0.153    33.553
   09/08/2022 00:01:03      0.224     0.000     0.153    33.553
   09/08/2022 00:01:04      0.225     0.000     0.153    33.553
   09/08/2022 00:01:05      0.225     0.000     0.153    33.553
   09/08/2022 00:01:06      0.225     0.000     0.153    33.553
   09/08/2022 00:01:07      0.226     0.000     0.153    33.553
   09/08/2022 00:01:08      0.226     0.000     0.154    33.554
   09/08/2022 00:01:09      0.226     0.000     0.154    33.554
   09/08/2022 00:01:10      0.226     0.000     0.154    33.554
   09/08/2022 00:01:11      0.226     0.000     0.154    33.554
   09/08/2022 00:01:12      0.226     0.000     0.154    33.554
   09/08/2022 00:01:13      0.226     0.000     0.154    33.554
   09/08/2022 00:01:14      0.226     0.000     0.154    33.554
   09/08/2022 00:01:15      0.226     0.000     0.154    33.554
   09/08/2022 00:01:16      0.226     0.000     0.154    33.554
   09/08/2022 00:01:17      0.226     0.000     0.154    33.554
   09/08/2022 00:01:18      0.226     0.000     0.154    33.554
   09/08/2022 00:01:19      0.226     0.000     0.154    33.554
   09/08/2022 00:01:20      0.225     0.000     0.154    33.554
   09/08/2022 00:01:21      0.225     0.000     0.154    33.554
   09/08/2022 00:01:22      0.225     0.000     0.154    33.554
   09/08/2022 00:01:23      0.225     0.000     0.154    33.554
   09/08/2022 00:01:24      0.225     0.000     0.154    33.554
   09/08/2022 00:01:25      0.225     0.000     0.153    33.553
   09/08/2022 00:01:26      0.225     0.000     0.153    33.553
   09/08/2022 00:01:27      0.225     0.000     0.153    33.553
   09/08/2022 00:01:28      0.225     0.000     0.153    33.553
   09/08/2022 00:01:29      0.225     0.000     0.153    33.553
   09/08/2022 00:01:30      0.226     0.000     0.153    33.553
   09/08/2022 00:01:31      0.226     0.000     0.154    33.554
   09/08/2022 00:01:32      0.226     0.000     0.154    33.554
   09/08/2022 00:01:33      0.226     0.000     0.154    33.554
   09/08/2022 00:01:34      0.226     0.000     0.154    33.554
   09/08/2022 00:01:35      0.227     0.000     0.154    33.554
   09/08/2022 00:01:36      0.227     0.000     0.154    33.554
   09/08/2022 00:01:37      0.227     0.000     0.154    33.554
   09/08/2022 00:01:38      0.227     0.000     0.154    33.554
   09/08/2022 00:01:39      0.227     0.000     0.154    33.554
   09/08/2022 00:01:40      0.227     0.000     0.154    33.554
   09/08/2022 00:01:41      0.228     0.000     0.154    33.554
   09/08/2022 00:01:42      0.228     0.000     0.154    33.554
   09/08/2022 00:01:43      0.228     0.000     0.154    33.554
   09/08/2022 00:01:44      0.228     0.000     0.154    33.554
   09/08/2022 00:01:45      0.228     0.000     0.154    33.554
   09/08/2022 00:01:46      0.228     0.000     0.154    33.554
   09/08/2022 00:01:47      0.228     0.000     0.154    33.554
   09/08/2022 00:01:48      0.228     0.000     0.154    33.554
   09/08/2022 00:01:49      0.228     0.000     0.155    33.555
   09/08/2022 00:01:50      0.228     0.000     0.155    33.555
   09/08/2022 00:01:51      0.228     0.000     0.155    33.555
   09/08/2022 00:01:52      0.228     0.000     0.155    33.555
   09/08/2022 00:01:53      0.228     0.000     0.155    33.555
   09/08/2022 00:01:54      0.228     0.000     0.154    33.554
   09/08/2022 00:01:55      0.228     0.000     0.154    33.554
   09/08/2022 00:01:56      0.228     0.000     0.154    33.554
   09/08/2022 00:01:57      0.228     0.000     0.154    33.554
   09/08/2022 00:01:58      0.227     0.000     0.154    33.554
   09/08/2022 00:01:59      0.227     0.000     0.154    33.554
   09/08/2022 00:02:00      0.227     0.000     0.154    33.554
   09/08/2022 00:02:01      0.227     0.000     0.154    33.554
   09/08/2022 00:02:02      0.227     0.000     0.154    33.554
   09/08/2022 00:02:03      0.227     0.000     0.154    33.554
   09/08/2022 00:02:04      0.227     0.000     0.154    33.554
   09/08/2022 00:02:05      0.227     0.000     0.154    33.554
   09/08/2022 00:02:06      0.227     0.000     0.154    33.554
   09/08/2022 00:02:07      0.227     0.000     0.154    33.554
   09/08/2022 00:02:08      0.227     0.000     0.154    33.554
   09/08/2022 00:02:09      0.227     0.000     0.154    33.554
   09/08/2022 00:02:10      0.227     0.000     0.154    33.554
   09/08/2022 00:02:11      0.227     0.000     0.154    33.554
   09/08/2022 00:02:12      0.227     0.000     0.154    33.554
   09/08/2022 00:02:13      0.227     0.000     0.154    33.554
   09/08/2022 00:02:14      0.227     0.000     0.154    33.554
   09/08/2022 00:02:15      0.227     0.000     0.154    33.554
   09/08/2022 00:02:16      0.227     0.000     0.154    33.554
  
  
  <<< Node Outfall_1 >>>
  ----------------------------------------------------------------
                           Inflow  Flooding     Depth      Head
  Date        Time            CMS       CMS    meters    meters
  ----------------------------------------------------------------
   09/08/2022 00:00:01      0.000     0.000     0.000    31.000
   09/08/2022 00:00:02      0.000     0.000     0.000    31.000
   09/08/2022 00:00:03      0.000     0.000     0.000    31.000
   09/08/2022 00:00:04      0.000     0.000     0.000    31.000
   09/08/2022 00:00:05      0.000     0.000     0.000    31.000
   09/08/2022 00:00:06      0.000     0.000     0.000    31.000
   09/08/2022 00:00:07      0.000     0.000     0.001    31.001
   09/08/2022 00:00:08      0.000     0.000     0.005    31.005
   09/08/2022 00:00:09      0.001     0.000     0.011    31.011
   09/08/2022 00:00:10      0.003     0.000     0.020    31.020
   09/08/2022 00:00:11      0.009     0.000     0.031    31.031
   09/08/2022 00:00:12      0.018     0.000     0.044    31.044
   09/08/2022 00:00:13      0.030     0.000     0.056    31.056
   09/08/2022 00:00:14      0.047     0.000     0.069    31.069
   09/08/2022 00:00:15      0.068     0.000     0.083    31.083
   09/08/2022 00:00:16      0.093     0.000     0.097    31.097
   09/08/2022 00:00:17      0.120     0.000     0.111    31.111
   09/08/2022 00:00:18      0.147     0.000     0.123    31.123
   09/08/2022 00:00:19      0.172     0.000     0.133    31.133
   09/08/2022 00:00:20      0.195     0.000     0.142    31.142
   09/08/2022 00:00:21      0.213     0.000     0.149    31.149
   09/08/2022 00:00:22      0.228     0.000     0.154    31.154
   09/08/2022 00:00:23      0.239     0.000     0.158    31.158
   09/08/2022 00:00:24      0.247     0.000     0.161    31.161
   09/08/2022 00:00:25      0.252     0.000     0.163    31.163
   09/08/2022 00:00:26      0.255     0.000     0.164    31.164
   09/08/2022 00:00:27      0.257     0.000     0.164    31.164
   09/08/2022 00:00:28      0.258     0.000     0.164    31.164
   09/08/2022 00:00:29      0.257     0.000     0.164    31.164
   09/08/2022 00:00:30      0.256     0.000     0.164    31.164
   09/08/2022 00:00:31      0.255     0.000     0.164    31.164
   09/08/2022 00:00:32      0.254     0.000     0.163    31.163
   09/08/2022 00:00:33      0.252     0.000     0.163    31.163
   09/08/2022 00:00:34      0.251     0.000     0.162    31.162
   09/08/2022 00:00:35      0.249     0.000     0.161    31.161
   09/08/2022 00:00:36      0.247     0.000     0.161    31.161
   09/08/2022 00:00:37      0.245     0.000     0.160    31.160
   09/08/2022 00:00:38      0.243     0.000     0.159    31.159
   09/08/2022 00:00:39      0.241     0.000     0.159    31.159
   09/08/2022 00:00:40      0.239     0.000     0.158    31.158
   09/08/2022 00:00:41      0.237     0.000     0.157    31.157
   09/08/2022 00:00:42      0.236     0.000     0.157    31.157
   09/08/2022 00:00:43      0.234     0.000     0.156    31.156
   09/08/2022 00:00:44      0.232     0.000     0.156    31.156
   09/08/2022 00:00:45      0.231     0.000     0.155    31.155
   09/08/2022 00:00:46      0.230     0.000     0.155    31.155
   09/08/2022 00:00:47      0.229     0.000     0.154    31.154
   09/08/2022 00:00:48      0.228     0.000     0.154    31.154
   09/08/2022 00:00:49      0.227     0.000     0.154    31.154
   09/08/2022 00:00:50      0.226     0.000     0.153    31.153
   09/08/2022 00:00:51      0.226     0.000     0.153    31.153
   09/08/2022 00:00:52      0.225     0.000     0.153    31.153
   09/08/2022 00:00:53      0.225     0.000     0.153    31.153
   09/08/2022 00:00:54      0.224     0.000     0.153    31.153
   09/08/2022 00:00:55      0.224     0.000     0.153    31.153
   09/08/2022 00:00:56      0.223     0.000     0.152    31.152
   09/08/2022 00:00:57      0.223     0.000     0.152    31.152
   09/08/2022 00:00:58      0.223     0.000     0.152    31.152
   09/08/2022 00:00:59      0.223     0.000     0.152    31.152
   09/08/2022 00:01:00      0.223     0.000     0.152    31.152
   09/08/2022 00:01:01      0.223     0.000     0.152    31.152
   09/08/2022 00:01:02      0.223     0.000     0.152    31.152
   09/08/2022 00:01:03      0.223     0.000     0.152    31.152
   09/08/2022 00:01:04      0.224     0.000     0.153    31.153
   09/08/2022 00:01:05      0.224     0.000     0.153    31.153
   09/08/2022 00:01:06      0.224     0.000     0.153    31.153
   09/08/2022 00:01:07      0.225     0.000     0.153    31.153
   09/08/2022 00:01:08      0.225     0.000     0.153    31.153
   09/08/2022 00:01:09      0.225     0.000     0.153    31.153
   09/08/2022 00:01:10      0.226     0.000     0.153    31.153
   09/08/2022 00:01:11      0.226     0.000     0.153    31.153
   09/08/2022 00:01:12      0.226     0.000     0.153    31.153
   09/08/2022 00:01:13      0.226     0.000     0.153    31.153
   09/08/2022 00:01:14      0.226     0.000     0.153    31.153
   09/08/2022 00:01:15      0.226     0.000     0.153    31.153
   09/08/2022 00:01:16      0.226     0.000     0.153    31.153
   09/08/2022 00:01:17      0.226     0.000     0.153    31.153
   09/08/2022 00:01:18      0.226     0.000     0.153    31.153
   09/08/2022 00:01:19      0.226     0.000     0.153    31.153
   09/08/2022 00:01:20      0.226     0.000     0.153    31.153
   09/08/2022 00:01:21      0.226     0.000     0.153    31.153
   09/08/2022 00:01:22      0.226     0.000     0.153    31.153
   09/08/2022 00:01:23      0.225     0.000     0.153    31.153
   09/08/2022 00:01:24      0.225     0.000     0.153    31.153
   09/08/2022 00:01:25      0.225     0.000     0.153    31.153
   09/08/2022 00:01:26      0.225     0.000     0.153    31.153
   09/08/2022 00:01:27      0.225     0.000     0.153    31.153
   09/08/2022 00:01:28      0.225     0.000     0.153    31.153
   09/08/2022 00:01:29      0.225     0.000     0.153    31.153
   09/08/2022 00:01:30      0.225     0.000     0.153    31.153
   09/08/2022 00:01:31      0.225     0.000     0.153    31.153
   09/08/2022 00:01:32      0.225     0.000     0.153    31.153
   09/08/2022 00:01:33      0.226     0.000     0.153    31.153
   09/08/2022 00:01:34      0.226     0.000     0.153    31.153
   09/08/2022 00:01:35      0.226     0.000     0.153    31.153
   09/08/2022 00:01:36      0.226     0.000     0.153    31.153
   09/08/2022 00:01:37      0.227     0.000     0.154    31.154
   09/08/2022 00:01:38      0.227     0.000     0.154    31.154
   09/08/2022 00:01:39      0.227     0.000     0.154    31.154
   09/08/2022 00:01:40      0.227     0.000     0.154    31.154
   09/08/2022 00:01:41      0.227     0.000     0.154    31.154
   09/08/2022 00:01:42      0.227     0.000     0.154    31.154
   09/08/2022 00:01:43      0.227     0.000     0.154    31.154
   09/08/2022 00:01:44      0.228     0.000     0.154    31.154
   09/08/2022 00:01:45      0.228     0.000     0.154    31.154
   09/08/2022 00:01:46      0.228     0.000     0.154    31.154
   09/08/2022 00:01:47      0.228     0.000     0.154    31.154
   09/08/2022 00:01:48      0.228     0.000     0.154    31.154
   09/08/2022 00:01:49      0.228     0.000     0.154    31.154
   09/08/2022 00:01:50      0.228     0.000     0.154    31.154
   09/08/2022 00:01:51      0.228     0.000     0.154    31.154
   09/08/2022 00:01:52      0.228     0.000     0.154    31.154
   09/08/2022 00:01:53      0.228     0.000     0.154    31.154
   09/08/2022 00:01:54      0.228     0.000     0.154    31.154
   09/08/2022 00:01:55      0.228     0.000     0.154    31.154
   09/08/2022 00:01:56      0.228     0.000     0.154    31.154
   09/08/2022 00:01:57      0.228     0.000     0.154    31.154
   09/08/2022 00:01:58      0.228     0.000     0.154    31.154
   09/08/2022 00:01:59      0.228     0.000     0.154    31.154
   09/08/2022 00:02:00      0.228     0.000     0.154    31.154
   09/08/2022 00:02:01      0.227     0.000     0.154    31.154
   09/08/2022 00:02:02      0.227     0.000     0.154    31.154
   09/08/2022 00:02:03      0.227     0.000     0.154    31.154
   09/08/2022 00:02:04      0.227     0.000     0.154    31.154
   09/08/2022 00:02:05      0.227     0.000     0.154    31.154
   09/08/2022 00:02:06      0.227     0.000     0.154    31.154
   09/08/2022 00:02:07      0.227     0.000     0.154    31.154
   09/08/2022 00:02:08      0.227     0.000     0.154    31.154
   09/08/2022 00:02:09      0.227     0.000     0.154    31.154
   09/08/2022 00:02:10      0.227     0.000     0.154    31.154
   09/08/2022 00:02:11      0.227     0.000     0.154    31.154
   09/08/2022 00:02:12      0.227     0.000     0.154    31.154
   09/08/2022 00:02:13      0.227     0.000     0.154    31.154
   09/08/2022 00:02:14      0.227     0.000     0.154    31.154
   09/08/2022 00:02:15      0.227     0.000     0.154    31.154
   09/08/2022 00:02:16      0.227     0.000     0.154    31.154
  
  
  ************
  Link Results
  ************
  
  <<< Link Conduit_1 >>>
  ----------------------------------------------------------------
                             Flow  Velocity     Depth  Capacity/
  Date        Time            CMS     m/sec    meters   Setting 
  ----------------------------------------------------------------
   09/08/2022 00:00:01      0.000     0.000     0.000     0.000
   09/08/2022 00:00:02      0.000     1.014     0.005     0.003
   09/08/2022 00:00:03      0.011     3.830     0.024     0.027
   09/08/2022 00:00:04      0.040     4.300     0.052     0.085
   09/08/2022 00:00:05      0.077     4.445     0.080     0.157
   09/08/2022 00:00:06      0.112     4.615     0.102     0.221
   09/08/2022 00:00:07      0.146     4.933     0.117     0.268
   09/08/2022 00:00:08      0.158     4.767     0.128     0.301
   09/08/2022 00:00:09      0.156     4.403     0.134     0.320
   09/08/2022 00:00:10      0.158     4.465     0.134     0.321
   09/08/2022 00:00:11      0.159     4.624     0.131     0.312
   09/08/2022 00:00:12      0.171     4.833     0.134     0.320
   09/08/2022 00:00:13      0.182     4.968     0.137     0.332
   09/08/2022 00:00:14      0.182     4.942     0.138     0.334
   09/08/2022 00:00:15      0.180     4.873     0.138     0.334
   09/08/2022 00:00:16      0.180     4.877     0.138     0.335
   09/08/2022 00:00:17      0.181     4.884     0.138     0.336
   09/08/2022 00:00:18      0.181     4.871     0.138     0.336
   09/08/2022 00:00:19      0.180     4.863     0.138     0.335
   09/08/2022 00:00:20      0.180     4.866     0.138     0.334
   09/08/2022 00:00:21      0.179     4.866     0.138     0.333
   09/08/2022 00:00:22      0.178     4.868     0.137     0.332
   09/08/2022 00:00:23      0.178     4.870     0.137     0.330
   09/08/2022 00:00:24      0.177     4.875     0.136     0.329
   09/08/2022 00:00:25      0.176     4.880     0.136     0.327
   09/08/2022 00:00:26      0.176     4.887     0.135     0.325
   09/08/2022 00:00:27      0.175     4.895     0.135     0.324
   09/08/2022 00:00:28      0.174     4.905     0.134     0.322
   09/08/2022 00:00:29      0.174     4.914     0.134     0.320
   09/08/2022 00:00:30      0.174     4.924     0.133     0.319
   09/08/2022 00:00:31      0.173     4.933     0.133     0.318
   09/08/2022 00:00:32      0.173     4.941     0.133     0.317
   09/08/2022 00:00:33      0.173     4.947     0.132     0.316
   09/08/2022 00:00:34      0.172     4.953     0.132     0.315
   09/08/2022 00:00:35      0.172     4.957     0.132     0.315
   09/08/2022 00:00:36      0.172     4.959     0.132     0.314
   09/08/2022 00:00:37      0.172     4.960     0.132     0.314
   09/08/2022 00:00:38      0.172     4.960     0.132     0.314
   09/08/2022 00:00:39      0.172     4.959     0.132     0.314
   09/08/2022 00:00:40      0.172     4.957     0.132     0.314
   09/08/2022 00:00:41      0.172     4.955     0.132     0.314
   09/08/2022 00:00:42      0.172     4.953     0.132     0.314
   09/08/2022 00:00:43      0.172     4.950     0.132     0.314
   09/08/2022 00:00:44      0.172     4.947     0.132     0.314
   09/08/2022 00:00:45      0.172     4.944     0.132     0.315
   09/08/2022 00:00:46      0.172     4.942     0.132     0.315
   09/08/2022 00:00:47      0.172     4.939     0.132     0.315
   09/08/2022 00:00:48      0.172     4.937     0.132     0.315
   09/08/2022 00:00:49      0.172     4.936     0.132     0.315
   09/08/2022 00:00:50      0.172     4.934     0.132     0.315
   09/08/2022 00:00:51      0.172     4.933     0.132     0.315
   09/08/2022 00:00:52      0.172     4.932     0.132     0.315
   09/08/2022 00:00:53      0.172     4.931     0.132     0.315
   09/08/2022 00:00:54      0.172     4.931     0.132     0.315
   09/08/2022 00:00:55      0.172     4.931     0.132     0.315
   09/08/2022 00:00:56      0.172     4.931     0.132     0.315
   09/08/2022 00:00:57      0.172     4.931     0.132     0.315
   09/08/2022 00:00:58      0.172     4.931     0.132     0.315
   09/08/2022 00:00:59      0.172     4.931     0.132     0.315
   09/08/2022 00:01:00      0.172     4.931     0.132     0.315
   09/08/2022 00:01:01      0.172     4.931     0.132     0.315
   09/08/2022 00:01:02      0.172     4.931     0.132     0.315
   09/08/2022 00:01:03      0.172     4.932     0.132     0.315
   09/08/2022 00:01:04      0.172     4.932     0.132     0.315
   09/08/2022 00:01:05      0.172     4.932     0.132     0.315
   09/08/2022 00:01:06      0.172     4.932     0.132     0.315
   09/08/2022 00:01:07      0.172     4.932     0.132     0.315
   09/08/2022 00:01:08      0.172     4.932     0.132     0.315
   09/08/2022 00:01:09      0.172     4.932     0.132     0.315
   09/08/2022 00:01:10      0.172     4.932     0.132     0.315
   09/08/2022 00:01:11      0.172     4.932     0.132     0.315
   09/08/2022 00:01:12      0.172     4.932     0.132     0.315
   09/08/2022 00:01:13      0.172     4.932     0.132     0.315
   09/08/2022 00:01:14      0.172     4.932     0.132     0.315
   09/08/2022 00:01:15      0.172     4.932     0.132     0.315
   09/08/2022 00:01:16      0.172     4.932     0.132     0.315
   09/08/2022 00:01:17      0.172     4.932     0.132     0.315
   09/08/2022 00:01:18      0.172     4.932     0.132     0.315
   09/08/2022 00:01:19      0.172     4.932     0.132     0.315
   09/08/2022 00:01:20      0.172     4.932     0.132     0.315
   09/08/2022 00:01:21      0.172     4.932     0.132     0.315
   09/08/2022 00:01:22      0.172     4.932     0.132     0.315
   09/08/2022 00:01:23      0.172     4.932     0.132     0.315
   09/08/2022 00:01:24      0.172     4.932     0.132     0.315
   09/08/2022 00:01:25      0.172     4.932     0.132     0.315
   09/08/2022 00:01:26      0.172     4.933     0.132     0.315
   09/08/2022 00:01:27      0.172     4.933     0.132     0.315
   09/08/2022 00:01:28      0.172     4.933     0.132     0.315
   09/08/2022 00:01:29      0.172     4.933     0.132     0.315
   09/08/2022 00:01:30      0.172     4.933     0.132     0.315
   09/08/2022 00:01:31      0.172     4.933     0.132     0.315
   09/08/2022 00:01:32      0.172     4.933     0.132     0.315
   09/08/2022 00:01:33      0.172     4.933     0.132     0.315
   09/08/2022 00:01:34      0.172     4.933     0.132     0.315
   09/08/2022 00:01:35      0.172     4.933     0.132     0.315
   09/08/2022 00:01:36      0.172     4.933     0.132     0.315
   09/08/2022 00:01:37      0.172     4.933     0.132     0.315
   09/08/2022 00:01:38      0.172     4.933     0.132     0.315
   09/08/2022 00:01:39      0.172     4.933     0.132     0.315
   09/08/2022 00:01:40      0.172     4.933     0.132     0.315
   09/08/2022 00:01:41      0.172     4.933     0.132     0.315
   09/08/2022 00:01:42      0.172     4.933     0.132     0.315
   09/08/2022 00:01:43      0.172     4.933     0.132     0.315
   09/08/2022 00:01:44      0.172     4.933     0.132     0.315
   09/08/2022 00:01:45      0.172     4.933     0.132     0.315
   09/08/2022 00:01:46      0.172     4.933     0.132     0.315
   09/08/2022 00:01:47      0.172     4.933     0.132     0.315
   09/08/2022 00:01:48      0.172     4.933     0.132     0.315
   09/08/2022 00:01:49      0.172     4.933     0.132     0.315
   09/08/2022 00:01:50      0.172     4.933     0.132     0.315
   09/08/2022 00:01:51      0.172     4.933     0.132     0.315
   09/08/2022 00:01:52      0.172     4.933     0.132     0.315
   09/08/2022 00:01:53      0.172     4.933     0.132     0.315
   09/08/2022 00:01:54      0.172     4.933     0.132     0.315
   09/08/2022 00:01:55      0.172     4.933     0.132     0.315
   09/08/2022 00:01:56      0.172     4.933     0.132     0.315
   09/08/2022 00:01:57      0.172     4.933     0.132     0.315
   09/08/2022 00:01:58      0.172     4.933     0.132     0.315
   09/08/2022 00:01:59      0.172     4.933     0.132     0.315
   09/08/2022 00:02:00      0.172     4.933     0.132     0.315
   09/08/2022 00:02:01      0.172     4.933     0.132     0.315
   09/08/2022 00:02:02      0.172     4.933     0.132     0.315
   09/08/2022 00:02:03      0.172     4.933     0.132     0.315
   09/08/2022 00:02:04      0.172     4.933     0.132     0.315
   09/08/2022 00:02:05      0.172     4.933     0.132     0.315
   09/08/2022 00:02:06      0.172     4.933     0.132     0.315
   09/08/2022 00:02:07      0.172     4.933     0.132     0.315
   09/08/2022 00:02:08      0.172     4.933     0.132     0.315
   09/08/2022 00:02:09      0.172     4.933     0.132     0.315
   09/08/2022 00:02:10      0.172     4.933     0.132     0.315
   09/08/2022 00:02:11      0.172     4.933     0.132     0.315
   09/08/2022 00:02:12      0.172     4.933     0.132     0.315
   09/08/2022 00:02:13      0.172     4.933     0.132     0.315
   09/08/2022 00:02:14      0.172     4.933     0.132     0.315
   09/08/2022 00:02:15      0.172     4.933     0.132     0.315
   09/08/2022 00:02:16      0.172     4.933     0.132     0.315
  
  
  <<< Link Conduit_2 >>>
  ----------------------------------------------------------------
                             Flow  Velocity     Depth  Capacity/
  Date        Time            CMS     m/sec    meters   Setting 
  ----------------------------------------------------------------
   09/08/2022 00:00:01      0.000     0.000     0.000     0.000
   09/08/2022 00:00:02      0.000     0.000     0.000     0.000
   09/08/2022 00:00:03      0.000     0.000     0.002     0.001
   09/08/2022 00:00:04      0.003     3.695     0.009     0.006
   09/08/2022 00:00:05      0.013     4.300     0.024     0.027
   09/08/2022 00:00:06      0.034     4.632     0.044     0.066
   09/08/2022 00:00:07      0.060     4.438     0.067     0.122
   09/08/2022 00:00:08      0.105     4.890     0.093     0.194
   09/08/2022 00:00:09      0.164     5.562     0.117     0.266
   09/08/2022 00:00:10      0.213     5.959     0.135     0.324
   09/08/2022 00:00:11      0.217     5.305     0.149     0.371
   09/08/2022 00:00:12      0.209     4.576     0.162     0.414
   09/08/2022 00:00:13      0.218     4.313     0.175     0.458
   09/08/2022 00:00:14      0.231     4.204     0.187     0.498
   09/08/2022 00:00:15      0.238     4.081     0.196     0.529
   09/08/2022 00:00:16      0.239     3.924     0.203     0.551
   09/08/2022 00:00:17      0.239     3.819     0.207     0.568
   09/08/2022 00:00:18      0.241     3.770     0.210     0.578
   09/08/2022 00:00:19      0.241     3.742     0.212     0.583
   09/08/2022 00:00:20      0.240     3.725     0.212     0.584
   09/08/2022 00:00:21      0.239     3.717     0.212     0.582
   09/08/2022 00:00:22      0.238     3.713     0.211     0.579
   09/08/2022 00:00:23      0.236     3.710     0.210     0.575
   09/08/2022 00:00:24      0.234     3.705     0.208     0.571
   09/08/2022 00:00:25      0.232     3.697     0.207     0.567
   09/08/2022 00:00:26      0.229     3.687     0.206     0.563
   09/08/2022 00:00:27      0.227     3.674     0.205     0.559
   09/08/2022 00:00:28      0.224     3.661     0.204     0.555
   09/08/2022 00:00:29      0.222     3.649     0.202     0.551
   09/08/2022 00:00:30      0.220     3.639     0.201     0.547
   09/08/2022 00:00:31      0.218     3.632     0.200     0.543
   09/08/2022 00:00:32      0.216     3.628     0.199     0.539
   09/08/2022 00:00:33      0.214     3.629     0.198     0.535
   09/08/2022 00:00:34      0.213     3.634     0.197     0.531
   09/08/2022 00:00:35      0.212     3.644     0.196     0.527
   09/08/2022 00:00:36      0.212     3.658     0.194     0.524
   09/08/2022 00:00:37      0.211     3.674     0.193     0.520
   09/08/2022 00:00:38      0.211     3.692     0.192     0.517
   09/08/2022 00:00:39      0.211     3.711     0.192     0.514
   09/08/2022 00:00:40      0.211     3.730     0.191     0.512
   09/08/2022 00:00:41      0.211     3.749     0.190     0.509
   09/08/2022 00:00:42      0.211     3.766     0.190     0.508
   09/08/2022 00:00:43      0.211     3.783     0.189     0.506
   09/08/2022 00:00:44      0.212     3.798     0.189     0.505
   09/08/2022 00:00:45      0.212     3.811     0.189     0.504
   09/08/2022 00:00:46      0.212     3.823     0.188     0.503
   09/08/2022 00:00:47      0.213     3.833     0.188     0.502
   09/08/2022 00:00:48      0.213     3.843     0.188     0.502
   09/08/2022 00:00:49      0.213     3.851     0.188     0.501
   09/08/2022 00:00:50      0.213     3.858     0.188     0.500
   09/08/2022 00:00:51      0.213     3.864     0.188     0.500
   09/08/2022 00:00:52      0.213     3.869     0.187     0.500
   09/08/2022 00:00:53      0.214     3.873     0.187     0.499
   09/08/2022 00:00:54      0.214     3.875     0.187     0.499
   09/08/2022 00:00:55      0.214     3.876     0.187     0.499
   09/08/2022 00:00:56      0.214     3.876     0.187     0.499
   09/08/2022 00:00:57      0.214     3.874     0.187     0.499
   09/08/2022 00:00:58      0.214     3.871     0.187     0.499
   09/08/2022 00:00:59      0.214     3.867     0.187     0.500
   09/08/2022 00:01:00      0.213     3.862     0.188     0.500
   09/08/2022 00:01:01      0.213     3.856     0.188     0.501
   09/08/2022 00:01:02      0.213     3.851     0.188     0.502
   09/08/2022 00:01:03      0.213     3.845     0.188     0.502
   09/08/2022 00:01:04      0.213     3.840     0.188     0.503
   09/08/2022 00:01:05      0.213     3.835     0.189     0.503
   09/08/2022 00:01:06      0.213     3.831     0.189     0.504
   09/08/2022 00:01:07      0.213     3.827     0.189     0.504
   09/08/2022 00:01:08      0.213     3.825     0.189     0.505
   09/08/2022 00:01:09      0.213     3.823     0.189     0.505
   09/08/2022 00:01:10      0.213     3.822     0.189     0.505
   09/08/2022 00:01:11      0.213     3.821     0.189     0.505
   09/08/2022 00:01:12      0.213     3.822     0.189     0.505
   09/08/2022 00:01:13      0.213     3.823     0.189     0.505
   09/08/2022 00:01:14      0.213     3.824     0.189     0.505
   09/08/2022 00:01:15      0.213     3.826     0.189     0.504
   09/08/2022 00:01:16      0.213     3.829     0.189     0.504
   09/08/2022 00:01:17      0.213     3.831     0.189     0.504
   09/08/2022 00:01:18      0.213     3.833     0.189     0.503
   09/08/2022 00:01:19      0.213     3.835     0.188     0.503
   09/08/2022 00:01:20      0.213     3.837     0.188     0.503
   09/08/2022 00:01:21      0.213     3.838     0.188     0.503
   09/08/2022 00:01:22      0.213     3.839     0.188     0.503
   09/08/2022 00:01:23      0.213     3.840     0.188     0.503
   09/08/2022 00:01:24      0.213     3.840     0.188     0.503
   09/08/2022 00:01:25      0.213     3.840     0.188     0.503
   09/08/2022 00:01:26      0.213     3.840     0.188     0.503
   09/08/2022 00:01:27      0.213     3.839     0.188     0.503
   09/08/2022 00:01:28      0.213     3.839     0.188     0.503
   09/08/2022 00:01:29      0.213     3.838     0.188     0.503
   09/08/2022 00:01:30      0.213     3.837     0.188     0.503
   09/08/2022 00:01:31      0.213     3.837     0.188     0.503
   09/08/2022 00:01:32      0.213     3.836     0.188     0.503
   09/08/2022 00:01:33      0.213     3.836     0.188     0.503
   09/08/2022 00:01:34      0.213     3.836     0.188     0.503
   09/08/2022 00:01:35      0.213     3.836     0.188     0.503
   09/08/2022 00:01:36      0.213     3.836     0.188     0.503
   09/08/2022 00:01:37      0.213     3.837     0.188     0.503
   09/08/2022 00:01:38      0.213     3.838     0.188     0.503
   09/08/2022 00:01:39      0.213     3.839     0.188     0.503
   09/08/2022 00:01:40      0.213     3.841     0.188     0.502
   09/08/2022 00:01:41      0.213     3.842     0.188     0.502
   09/08/2022 00:01:42      0.213     3.843     0.188     0.502
   09/08/2022 00:01:43      0.213     3.845     0.188     0.502
   09/08/2022 00:01:44      0.213     3.846     0.188     0.502
   09/08/2022 00:01:45      0.213     3.847     0.188     0.502
   09/08/2022 00:01:46      0.213     3.849     0.188     0.501
   09/08/2022 00:01:47      0.213     3.850     0.188     0.501
   09/08/2022 00:01:48      0.213     3.851     0.188     0.501
   09/08/2022 00:01:49      0.213     3.852     0.188     0.501
   09/08/2022 00:01:50      0.213     3.853     0.188     0.501
   09/08/2022 00:01:51      0.213     3.854     0.188     0.501
   09/08/2022 00:01:52      0.213     3.854     0.188     0.501
   09/08/2022 00:01:53      0.213     3.855     0.188     0.501
   09/08/2022 00:01:54      0.213     3.855     0.188     0.501
   09/08/2022 00:01:55      0.213     3.855     0.188     0.501
   09/08/2022 00:01:56      0.213     3.856     0.188     0.501
   09/08/2022 00:01:57      0.213     3.856     0.188     0.501
   09/08/2022 00:01:58      0.213     3.856     0.188     0.501
   09/08/2022 00:01:59      0.213     3.855     0.188     0.501
   09/08/2022 00:02:00      0.213     3.855     0.188     0.501
   09/08/2022 00:02:01      0.213     3.855     0.188     0.501
   09/08/2022 00:02:02      0.213     3.854     0.188     0.501
   09/08/2022 00:02:03      0.213     3.854     0.188     0.501
   09/08/2022 00:02:04      0.213     3.854     0.188     0.501
   09/08/2022 00:02:05      0.213     3.853     0.188     0.501
   09/08/2022 00:02:06      0.213     3.853     0.188     0.501
   09/08/2022 00:02:07      0.213     3.852     0.188     0.501
   09/08/2022 00:02:08      0.213     3.852     0.188     0.501
   09/08/2022 00:02:09      0.213     3.851     0.188     0.501
   09/08/2022 00:02:10      0.213     3.851     0.188     0.501
   09/08/2022 00:02:11      0.213     3.851     0.188     0.501
   09/08/2022 00:02:12      0.213     3.850     0.188     0.501
   09/08/2022 00:02:13      0.213     3.850     0.188     0.501
   09/08/2022 00:02:14      0.213     3.850     0.188     0.501
   09/08/2022 00:02:15      0.213     3.849     0.188     0.501
   09/08/2022 00:02:16      0.213     3.849     0.188     0.501
  
  
  <<< Link Conduit_3 >>>
  ----------------------------------------------------------------
                             Flow  Velocity     Depth  Capacity/
  Date        Time            CMS     m/sec    meters   Setting 
  ----------------------------------------------------------------
   09/08/2022 00:00:01      0.000     0.000     0.000     0.000
   09/08/2022 00:00:02      0.000     0.000     0.000     0.000
   09/08/2022 00:00:03      0.000     0.000     0.000     0.000
   09/08/2022 00:00:04      0.000     0.000     0.000     0.000
   09/08/2022 00:00:05      0.000     0.000     0.002     0.001
   09/08/2022 00:00:06      0.001     1.580     0.008     0.005
   09/08/2022 00:00:07      0.003     1.935     0.017     0.016
   09/08/2022 00:00:08      0.010     2.303     0.030     0.037
   09/08/2022 00:00:09      0.025     3.023     0.049     0.076
   09/08/2022 00:00:10      0.046     3.139     0.071     0.132
   09/08/2022 00:00:11      0.079     3.561     0.096     0.202
   09/08/2022 00:00:12      0.114     3.821     0.118     0.270
   09/08/2022 00:00:13      0.134     3.676     0.137     0.330
   09/08/2022 00:00:14      0.153     3.555     0.154     0.388
   09/08/2022 00:00:15      0.174     3.548     0.171     0.443
   09/08/2022 00:00:16      0.194     3.574     0.185     0.491
   09/08/2022 00:00:17      0.211     3.609     0.196     0.529
   09/08/2022 00:00:18      0.225     3.647     0.205     0.558
   09/08/2022 00:00:19      0.236     3.684     0.211     0.579
   09/08/2022 00:00:20      0.244     3.717     0.215     0.594
   09/08/2022 00:00:21      0.249     3.747     0.218     0.602
   09/08/2022 00:00:22      0.253     3.773     0.219     0.607
   09/08/2022 00:00:23      0.255     3.795     0.220     0.608
   09/08/2022 00:00:24      0.256     3.813     0.220     0.608
   09/08/2022 00:00:25      0.256     3.827     0.219     0.607
   09/08/2022 00:00:26      0.256     3.838     0.218     0.605
   09/08/2022 00:00:27      0.256     3.845     0.218     0.602
   09/08/2022 00:00:28      0.255     3.851     0.217     0.599
   09/08/2022 00:00:29      0.254     3.854     0.216     0.596
   09/08/2022 00:00:30      0.252     3.855     0.215     0.592
   09/08/2022 00:00:31      0.251     3.856     0.214     0.588
   09/08/2022 00:00:32      0.249     3.856     0.212     0.584
   09/08/2022 00:00:33      0.247     3.856     0.211     0.580
   09/08/2022 00:00:34      0.245     3.855     0.210     0.576
   09/08/2022 00:00:35      0.243     3.854     0.209     0.572
   09/08/2022 00:00:36      0.241     3.852     0.207     0.567
   09/08/2022 00:00:37      0.239     3.851     0.206     0.563
   09/08/2022 00:00:38      0.237     3.849     0.205     0.558
   09/08/2022 00:00:39      0.236     3.848     0.204     0.554
   09/08/2022 00:00:40      0.234     3.846     0.202     0.551
   09/08/2022 00:00:41      0.232     3.844     0.201     0.547
   09/08/2022 00:00:42      0.231     3.842     0.201     0.544
   09/08/2022 00:00:43      0.230     3.840     0.200     0.542
   09/08/2022 00:00:44      0.229     3.838     0.199     0.539
   09/08/2022 00:00:45      0.228     3.836     0.199     0.538
   09/08/2022 00:00:46      0.227     3.835     0.198     0.536
   09/08/2022 00:00:47      0.226     3.833     0.198     0.534
   09/08/2022 00:00:48      0.226     3.831     0.197     0.533
   09/08/2022 00:00:49      0.225     3.830     0.197     0.532
   09/08/2022 00:00:50      0.225     3.828     0.197     0.531
   09/08/2022 00:00:51      0.224     3.827     0.196     0.530
   09/08/2022 00:00:52      0.224     3.826     0.196     0.529
   09/08/2022 00:00:53      0.223     3.825     0.196     0.529
   09/08/2022 00:00:54      0.223     3.824     0.196     0.528
   09/08/2022 00:00:55      0.223     3.823     0.196     0.528
   09/08/2022 00:00:56      0.223     3.823     0.196     0.528
   09/08/2022 00:00:57      0.223     3.822     0.196     0.528
   09/08/2022 00:00:58      0.223     3.822     0.196     0.528
   09/08/2022 00:00:59      0.223     3.822     0.196     0.529
   09/08/2022 00:01:00      0.223     3.822     0.196     0.529
   09/08/2022 00:01:01      0.224     3.822     0.196     0.530
   09/08/2022 00:01:02      0.224     3.822     0.197     0.531
   09/08/2022 00:01:03      0.224     3.822     0.197     0.531
   09/08/2022 00:01:04      0.225     3.822     0.197     0.532
   09/08/2022 00:01:05      0.225     3.822     0.197     0.533
   09/08/2022 00:01:06      0.225     3.822     0.197     0.534
   09/08/2022 00:01:07      0.226     3.823     0.198     0.534
   09/08/2022 00:01:08      0.226     3.823     0.198     0.535
   09/08/2022 00:01:09      0.226     3.823     0.198     0.535
   09/08/2022 00:01:10      0.226     3.824     0.198     0.536
   09/08/2022 00:01:11      0.226     3.824     0.198     0.536
   09/08/2022 00:01:12      0.226     3.824     0.198     0.536
   09/08/2022 00:01:13      0.226     3.825     0.198     0.536
   09/08/2022 00:01:14      0.226     3.825     0.198     0.536
   09/08/2022 00:01:15      0.226     3.825     0.198     0.535
   09/08/2022 00:01:16      0.226     3.825     0.198     0.535
   09/08/2022 00:01:17      0.226     3.825     0.198     0.535
   09/08/2022 00:01:18      0.226     3.825     0.198     0.534
   09/08/2022 00:01:19      0.226     3.825     0.197     0.534
   09/08/2022 00:01:20      0.225     3.825     0.197     0.534
   09/08/2022 00:01:21      0.225     3.825     0.197     0.533
   09/08/2022 00:01:22      0.225     3.825     0.197     0.533
   09/08/2022 00:01:23      0.225     3.825     0.197     0.533
   09/08/2022 00:01:24      0.225     3.825     0.197     0.533
   09/08/2022 00:01:25      0.225     3.825     0.197     0.533
   09/08/2022 00:01:26      0.225     3.824     0.197     0.533
   09/08/2022 00:01:27      0.225     3.824     0.197     0.533
   09/08/2022 00:01:28      0.225     3.824     0.197     0.533
   09/08/2022 00:01:29      0.225     3.824     0.197     0.533
   09/08/2022 00:01:30      0.225     3.824     0.197     0.533
   09/08/2022 00:01:31      0.225     3.824     0.197     0.533
   09/08/2022 00:01:32      0.225     3.825     0.197     0.534
   09/08/2022 00:01:33      0.225     3.825     0.197     0.534
   09/08/2022 00:01:34      0.226     3.825     0.197     0.534
   09/08/2022 00:01:35      0.226     3.826     0.197     0.534
   09/08/2022 00:01:36      0.226     3.826     0.198     0.534
   09/08/2022 00:01:37      0.226     3.827     0.198     0.534
   09/08/2022 00:01:38      0.226     3.828     0.198     0.534
   09/08/2022 00:01:39      0.226     3.828     0.198     0.534
   09/08/2022 00:01:40      0.226     3.829     0.197     0.534
   09/08/2022 00:01:41      0.226     3.829     0.197     0.534
   09/08/2022 00:01:42      0.226     3.830     0.197     0.534
   09/08/2022 00:01:43      0.226     3.830     0.197     0.534
   09/08/2022 00:01:44      0.226     3.831     0.197     0.534
   09/08/2022 00:01:45      0.226     3.831     0.197     0.533
   09/08/2022 00:01:46      0.226     3.832     0.197     0.533
   09/08/2022 00:01:47      0.226     3.832     0.197     0.533
   09/08/2022 00:01:48      0.226     3.832     0.197     0.533
   09/08/2022 00:01:49      0.226     3.833     0.197     0.533
   09/08/2022 00:01:50      0.226     3.833     0.197     0.533
   09/08/2022 00:01:51      0.226     3.833     0.197     0.533
   09/08/2022 00:01:52      0.226     3.833     0.197     0.533
   09/08/2022 00:01:53      0.226     3.833     0.197     0.533
   09/08/2022 00:01:54      0.225     3.833     0.197     0.533
   09/08/2022 00:01:55      0.225     3.833     0.197     0.532
   09/08/2022 00:01:56      0.225     3.833     0.197     0.532
   09/08/2022 00:01:57      0.225     3.833     0.197     0.532
   09/08/2022 00:01:58      0.225     3.833     0.197     0.532
   09/08/2022 00:01:59      0.225     3.833     0.197     0.532
   09/08/2022 00:02:00      0.225     3.832     0.197     0.532
   09/08/2022 00:02:01      0.225     3.832     0.197     0.532
   09/08/2022 00:02:02      0.225     3.832     0.197     0.532
   09/08/2022 00:02:03      0.225     3.832     0.197     0.532
   09/08/2022 00:02:04      0.225     3.831     0.197     0.532
   09/08/2022 00:02:05      0.225     3.831     0.197     0.532
   09/08/2022 00:02:06      0.225     3.831     0.197     0.532
   09/08/2022 00:02:07      0.225     3.831     0.197     0.532
   09/08/2022 00:02:08      0.225     3.831     0.197     0.532
   09/08/2022 00:02:09      0.225     3.830     0.197     0.532
   09/08/2022 00:02:10      0.225     3.830     0.197     0.532
   09/08/2022 00:02:11      0.225     3.830     0.197     0.532
   09/08/2022 00:02:12      0.225     3.830     0.197     0.532
   09/08/2022 00:02:13      0.225     3.830     0.197     0.532
   09/08/2022 00:02:14      0.225     3.830     0.197     0.533
   09/08/2022 00:02:15      0.225     3.830     0.197     0.533
   09/08/2022 00:02:16      0.225     3.830     0.197     0.533
  
  
  <<< Link Conduit_4 >>>
  ----------------------------------------------------------------
                             Flow  Velocity     Depth  Capacity/
  Date        Time            CMS     m/sec    meters   Setting 
  ----------------------------------------------------------------
   09/08/2022 00:00:01      0.000     0.000     0.000     0.000
   09/08/2022 00:00:02      0.000     0.000     0.000     0.000
   09/08/2022 00:00:03      0.000     0.000     0.000     0.000
   09/08/2022 00:00:04      0.000     0.000     0.000     0.000
   09/08/2022 00:00:05      0.000     0.000     0.000     0.000
   09/08/2022 00:00:06      0.000     0.000     0.000     0.000
   09/08/2022 00:00:07      0.000     0.000     0.002     0.001
   09/08/2022 00:00:08      0.000     0.693     0.005     0.002
   09/08/2022 00:00:09      0.001     1.092     0.011     0.006
   09/08/2022 00:00:10      0.003     1.463     0.019     0.015
   09/08/2022 00:00:11      0.009     1.906     0.030     0.029
   09/08/2022 00:00:12      0.018     2.358     0.043     0.049
   09/08/2022 00:00:13      0.030     2.631     0.056     0.072
   09/08/2022 00:00:14      0.047     2.930     0.071     0.101
   09/08/2022 00:00:15      0.068     3.245     0.085     0.132
   09/08/2022 00:00:16      0.093     3.546     0.100     0.165
   09/08/2022 00:00:17      0.120     3.818     0.113     0.197
   09/08/2022 00:00:18      0.147     4.056     0.125     0.227
   09/08/2022 00:00:19      0.172     4.260     0.136     0.254
   09/08/2022 00:00:20      0.195     4.427     0.144     0.276
   09/08/2022 00:00:21      0.213     4.559     0.151     0.294
   09/08/2022 00:00:22      0.228     4.661     0.156     0.308
   09/08/2022 00:00:23      0.239     4.738     0.160     0.317
   09/08/2022 00:00:24      0.247     4.793     0.162     0.324
   09/08/2022 00:00:25      0.252     4.831     0.164     0.328
   09/08/2022 00:00:26      0.255     4.855     0.164     0.331
   09/08/2022 00:00:27      0.257     4.870     0.165     0.332
   09/08/2022 00:00:28      0.258     4.878     0.165     0.332
   09/08/2022 00:00:29      0.257     4.880     0.165     0.331
   09/08/2022 00:00:30      0.256     4.879     0.164     0.330
   09/08/2022 00:00:31      0.255     4.875     0.164     0.329
   09/08/2022 00:00:32      0.254     4.870     0.163     0.328
   09/08/2022 00:00:33      0.252     4.863     0.163     0.326
   09/08/2022 00:00:34      0.251     4.855     0.162     0.325
   09/08/2022 00:00:35      0.249     4.846     0.162     0.323
   09/08/2022 00:00:36      0.247     4.837     0.161     0.321
   09/08/2022 00:00:37      0.245     4.827     0.160     0.319
   09/08/2022 00:00:38      0.243     4.816     0.160     0.317
   09/08/2022 00:00:39      0.241     4.805     0.159     0.316
   09/08/2022 00:00:40      0.239     4.794     0.158     0.314
   09/08/2022 00:00:41      0.237     4.784     0.157     0.312
   09/08/2022 00:00:42      0.236     4.774     0.157     0.310
   09/08/2022 00:00:43      0.234     4.764     0.156     0.309
   09/08/2022 00:00:44      0.232     4.755     0.156     0.307
   09/08/2022 00:00:45      0.231     4.747     0.155     0.306
   09/08/2022 00:00:46      0.230     4.740     0.155     0.305
   09/08/2022 00:00:47      0.229     4.734     0.154     0.304
   09/08/2022 00:00:48      0.228     4.728     0.154     0.303
   09/08/2022 00:00:49      0.227     4.723     0.154     0.302
   09/08/2022 00:00:50      0.226     4.719     0.154     0.302
   09/08/2022 00:00:51      0.226     4.715     0.153     0.301
   09/08/2022 00:00:52      0.225     4.711     0.153     0.300
   09/08/2022 00:00:53      0.225     4.708     0.153     0.300
   09/08/2022 00:00:54      0.224     4.705     0.153     0.299
   09/08/2022 00:00:55      0.224     4.703     0.153     0.299
   09/08/2022 00:00:56      0.223     4.701     0.153     0.299
   09/08/2022 00:00:57      0.223     4.699     0.153     0.299
   09/08/2022 00:00:58      0.223     4.698     0.152     0.298
   09/08/2022 00:00:59      0.223     4.698     0.152     0.298
   09/08/2022 00:01:00      0.223     4.697     0.152     0.298
   09/08/2022 00:01:01      0.223     4.698     0.152     0.298
   09/08/2022 00:01:02      0.223     4.699     0.153     0.299
   09/08/2022 00:01:03      0.223     4.700     0.153     0.299
   09/08/2022 00:01:04      0.224     4.701     0.153     0.299
   09/08/2022 00:01:05      0.224     4.703     0.153     0.299
   09/08/2022 00:01:06      0.224     4.705     0.153     0.300
   09/08/2022 00:01:07      0.225     4.707     0.153     0.300
   09/08/2022 00:01:08      0.225     4.709     0.153     0.300
   09/08/2022 00:01:09      0.225     4.711     0.153     0.301
   09/08/2022 00:01:10      0.226     4.712     0.153     0.301
   09/08/2022 00:01:11      0.226     4.714     0.154     0.301
   09/08/2022 00:01:12      0.226     4.715     0.154     0.301
   09/08/2022 00:01:13      0.226     4.716     0.154     0.302
   09/08/2022 00:01:14      0.226     4.716     0.154     0.302
   09/08/2022 00:01:15      0.226     4.716     0.154     0.302
   09/08/2022 00:01:16      0.226     4.716     0.154     0.302
   09/08/2022 00:01:17      0.226     4.716     0.154     0.302
   09/08/2022 00:01:18      0.226     4.716     0.154     0.301
   09/08/2022 00:01:19      0.226     4.715     0.154     0.301
   09/08/2022 00:01:20      0.226     4.714     0.153     0.301
   09/08/2022 00:01:21      0.226     4.714     0.153     0.301
   09/08/2022 00:01:22      0.226     4.713     0.153     0.301
   09/08/2022 00:01:23      0.225     4.712     0.153     0.301
   09/08/2022 00:01:24      0.225     4.712     0.153     0.301
   09/08/2022 00:01:25      0.225     4.711     0.153     0.301
   09/08/2022 00:01:26      0.225     4.711     0.153     0.301
   09/08/2022 00:01:27      0.225     4.710     0.153     0.301
   09/08/2022 00:01:28      0.225     4.710     0.153     0.300
   09/08/2022 00:01:29      0.225     4.710     0.153     0.301
   09/08/2022 00:01:30      0.225     4.710     0.153     0.301
   09/08/2022 00:01:31      0.225     4.711     0.153     0.301
   09/08/2022 00:01:32      0.225     4.711     0.153     0.301
   09/08/2022 00:01:33      0.226     4.712     0.153     0.301
   09/08/2022 00:01:34      0.226     4.713     0.153     0.301
   09/08/2022 00:01:35      0.226     4.715     0.154     0.301
   09/08/2022 00:01:36      0.226     4.716     0.154     0.302
   09/08/2022 00:01:37      0.227     4.717     0.154     0.302
   09/08/2022 00:01:38      0.227     4.718     0.154     0.302
   09/08/2022 00:01:39      0.227     4.720     0.154     0.302
   09/08/2022 00:01:40      0.227     4.721     0.154     0.302
   09/08/2022 00:01:41      0.227     4.722     0.154     0.303
   09/08/2022 00:01:42      0.227     4.722     0.154     0.303
   09/08/2022 00:01:43      0.227     4.723     0.154     0.303
   09/08/2022 00:01:44      0.228     4.724     0.154     0.303
   09/08/2022 00:01:45      0.228     4.724     0.154     0.303
   09/08/2022 00:01:46      0.228     4.725     0.154     0.303
   09/08/2022 00:01:47      0.228     4.725     0.154     0.303
   09/08/2022 00:01:48      0.228     4.726     0.154     0.303
   09/08/2022 00:01:49      0.228     4.726     0.154     0.303
   09/08/2022 00:01:50      0.228     4.726     0.154     0.303
   09/08/2022 00:01:51      0.228     4.727     0.154     0.303
   09/08/2022 00:01:52      0.228     4.727     0.154     0.303
   09/08/2022 00:01:53      0.228     4.727     0.154     0.303
   09/08/2022 00:01:54      0.228     4.727     0.154     0.303
   09/08/2022 00:01:55      0.228     4.726     0.154     0.303
   09/08/2022 00:01:56      0.228     4.726     0.154     0.303
   09/08/2022 00:01:57      0.228     4.726     0.154     0.303
   09/08/2022 00:01:58      0.228     4.725     0.154     0.303
   09/08/2022 00:01:59      0.228     4.725     0.154     0.303
   09/08/2022 00:02:00      0.228     4.724     0.154     0.303
   09/08/2022 00:02:01      0.227     4.723     0.154     0.303
   09/08/2022 00:02:02      0.227     4.723     0.154     0.303
   09/08/2022 00:02:03      0.227     4.722     0.154     0.303
   09/08/2022 00:02:04      0.227     4.722     0.154     0.302
   09/08/2022 00:02:05      0.227     4.721     0.154     0.302
   09/08/2022 00:02:06      0.227     4.721     0.154     0.302
   09/08/2022 00:02:07      0.227     4.721     0.154     0.302
   09/08/2022 00:02:08      0.227     4.720     0.154     0.302
   09/08/2022 00:02:09      0.227     4.720     0.154     0.302
   09/08/2022 00:02:10      0.227     4.720     0.154     0.302
   09/08/2022 00:02:11      0.227     4.720     0.