
  OWA STORM WATER MANAGEMENT MODEL - VERSION v5.1.14 (OWA 2022-07-31)
  --------------------------------------------------------------

  
  *********************************************************
  NOTE: The summary statistics displayed in this report are
  based on results found at every computational time step,  
  not just on results from each reporting time step.
  *********************************************************
  
  ****************
  Analysis Options
  ****************
  Flow Units ............... CMS
  Process Models:
    Rainfall/Runoff ........ NO
    RDII ................... NO
    Snowmelt ............... NO
    Groundwater ............ NO
    Flow Routing ........... YES
    Ponding Allowed ........ NO
    Water Quality .......... NO
  Flow Routing Method ...... DYNWAVE
  Surcharge Method ......... EXTRAN
  Starting Date ............ 09/08/2022 00:00:00
  Ending Date .............. 09/08/2022 06:00:01
  Antecedent Dry Days ...... 0.0
  Report Time Step ......... 00:00:01
  Routing Time Step ........ 1.00 sec
  Variable Time Step ....... YES
  Maximum Trials ........... 8
  Number of Threads ........ 1
  Head Tolerance ........... 0.001500 m
  
  
  ************
  Node Results
  ************
  
  <<< Node Inlet_1 >>>
  ----------------------------------------------------------------
                           Inflow  Flooding     Depth      Head
  Date        Time            CMS       CMS    meters    meters
  ----------------------------------------------------------------
   09/08/2022 00:00:01      0.000     0.000     0.000    37.500
   09/08/2022 00:00:02      0.000     0.000     0.000    37.500
   09/08/2022 00:00:03      0.000     0.000     0.000    37.500
   09/08/2022 00:00:04      0.000     0.000     0.000    37.500
   09/08/2022 00:00:05      0.000     0.000     0.000    37.500
   09/08/2022 00:00:06      0.000     0.000     0.000    37.500
   09/08/2022 00:00:07      0.000     0.000     0.000    37.500
   09/08/2022 00:00:08      0.001     0.000     0.000    37.500
   09/08/2022 00:00:09      0.005     0.000     0.003    37.503
   09/08/2022 00:00:10      0.014     0.000     0.011    37.511
   09/08/2022 00:00:11      0.025     0.000     0.026    37.526
   09/08/2022 00:00:12      0.035     0.000     0.046    37.546
   09/08/2022 00:00:13      0.044     0.000     0.066    37.566
   09/08/2022 00:00:14      0.051     0.000     0.080    37.580
   09/08/2022 00:00:15      0.057     0.000     0.086    37.586
   09/08/2022 00:00:16      0.062     0.000     0.085    37.585
   09/08/2022 00:00:17      0.065     0.000     0.081    37.581
   09/08/2022 00:00:18      0.067     0.000     0.079    37.579
   09/08/2022 00:00:19      0.069     0.000     0.080    37.580
   09/08/2022 00:00:20      0.070     0.000     0.081    37.581
   09/08/2022 00:00:21      0.071     0.000     0.082    37.582
   09/08/2022 00:00:22      0.071     0.000     0.082    37.582
   09/08/2022 00:00:23      0.071     0.000     0.082    37.582
   09/08/2022 00:00:24      0.071     0.000     0.082    37.582
   09/08/2022 00:00:25      0.071     0.000     0.082    37.582
   09/08/2022 00:00:26      0.071     0.000     0.082    37.582
   09/08/2022 00:00:27      0.071     0.000     0.082    37.582
   09/08/2022 00:00:28      0.071     0.000     0.082    37.582
   09/08/2022 00:00:29      0.071     0.000     0.082    37.582
   09/08/2022 00:00:30      0.071     0.000     0.082    37.582
   09/08/2022 00:00:31      0.071     0.000     0.082    37.582
   09/08/2022 00:00:32      0.071     0.000     0.082    37.582
   09/08/2022 00:00:33      0.071     0.000     0.082    37.582
   09/08/2022 00:00:34      0.071     0.000     0.082    37.582
   09/08/2022 00:00:35      0.071     0.000     0.082    37.582
   09/08/2022 00:00:36      0.071     0.000     0.082    37.582
   09/08/2022 00:00:37      0.071     0.000     0.082    37.582
   09/08/2022 00:00:38      0.071     0.000     0.082    37.582
   09/08/2022 00:00:39      0.071     0.000     0.082    37.582
   09/08/2022 00:00:40      0.071     0.000     0.082    37.582
   09/08/2022 00:00:41      0.071     0.000     0.082    37.582
   09/08/2022 00:00:42      0.071     0.000     0.082    37.582
   09/08/2022 00:00:43      0.071     0.000     0.082    37.582
   09/08/2022 00:00:44      0.071     0.000     0.082    37.582
   09/08/2022 00:00:45      0.071     0.000     0.082    37.582
   09/08/2022 00:00:46      0.071     0.000     0.082    37.582
   09/08/2022 00:00:47      0.071     0.000     0.082    37.582
   09/08/2022 00:00:48      0.071     0.000     0.082    37.582
   09/08/2022 00:00:49      0.071     0.000     0.082    37.582
   09/08/2022 00:00:50      0.071     0.000     0.082    37.582
   09/08/2022 00:00:51      0.071     0.000     0.082    37.582
   09/08/2022 00:00:52      0.071     0.000     0.082    37.582
   09/08/2022 00:00:53      0.071     0.000     0.082    37.582
   09/08/2022 00:00:54      0.071     0.000     0.082    37.582
   09/08/2022 00:00:55      0.071     0.000     0.082    37.582
   09/08/2022 00:00:56      0.071     0.000     0.082    37.582
   09/08/2022 00:00:57      0.071     0.000     0.082    37.582
   09/08/2022 00:00:58      0.071     0.000     0.082    37.582
   09/08/2022 00:00:59      0.071     0.000     0.082    37.582
   09/08/2022 00:01:00      0.071     0.000     0.082    37.582
   09/08/2022 00:01:01      0.071     0.000     0.082    37.582
   09/08/2022 00:01:02      0.071     0.000     0.082    37.582
   09/08/2022 00:01:03      0.071     0.000     0.082    37.582
   09/08/2022 00:01:04      0.071     0.000     0.082    37.582
   09/08/2022 00:01:05      0.071     0.000     0.082    37.582
   09/08/2022 00:01:06      0.071     0.000     0.082    37.582
   09/08/2022 00:01:07      0.071     0.000     0.082    37.582
   09/08/2022 00:01:08      0.071     0.000     0.082    37.582
   09/08/2022 00:01:09      0.071     0.000     0.082    37.582
   09/08/2022 00:01:10      0.071     0.000     0.082    37.582
   09/08/2022 00:01:11      0.071     0.000     0.082    37.582
   09/08/2022 00:01:12      0.071     0.000     0.082    37.582
   09/08/2022 00:01:13      0.071     0.000     0.082    37.582
   09/08/2022 00:01:14      0.071     0.000     0.082    37.582
   09/08/2022 00:01:15      0.071     0.000     0.082    37.582
   09/08/2022 00:01:16      0.071     0.000     0.082    37.582
   09/08/2022 00:01:17      0.071     0.000     0.082    37.582
   09/08/2022 00:01:18      0.071     0.000     0.082    37.582
   09/08/2022 00:01:19      0.071     0.000     0.082    37.582
   09/08/2022 00:01:20      0.071     0.000     0.082    37.582
   09/08/2022 00:01:21      0.071     0.000     0.082    37.582
   09/08/2022 00:01:22      0.071     0.000     0.082    37.582
   09/08/2022 00:01:23      0.071     0.000     0.082    37.582
   09/08/2022 00:01:24      0.071     0.000     0.082    37.582
   09/08/2022 00:01:25      0.071     0.000     0.082    37.582
   09/08/2022 00:01:26      0.071     0.000     0.082    37.582
   09/08/2022 00:01:27      0.071     0.000     0.082    37.582
   09/08/2022 00:01:28      0.071     0.000     0.082    37.582
   09/08/2022 00:01:29      0.071     0.000     0.082    37.582
   09/08/2022 00:01:30      0.071     0.000     0.082    37.582
   09/08/2022 00:01:31      0.071     0.000     0.082    37.582
   09/08/2022 00:01:32      0.071     0.000     0.082    37.582
   09/08/2022 00:01:33      0.071     0.000     0.082    37.582
   09/08/2022 00:01:34      0.071     0.000     0.082    37.582
   09/08/2022 00:01:35      0.071     0.000     0.082    37.582
   09/08/2022 00:01:36      0.071     0.000     0.082    37.582
   09/08/2022 00:01:37      0.071     0.000     0.082    37.582
   09/08/2022 00:01:38      0.071     0.000     0.082    37.582
   09/08/2022 00:01:39      0.071     0.000     0.082    37.582
   09/08/2022 00:01:40      0.071     0.000     0.082    37.582
   09/08/2022 00:01:41      0.071     0.000     0.082    37.582
  
  
  <<< Node Inlet_2 >>>
  ----------------------------------------------------------------
                           Inflow  Flooding     Depth      Head
  Date        Time            CMS       CMS    meters    meters
  ----------------------------------------------------------------
   09/08/2022 00:00:01      0.000     0.000     0.000    36.400
   09/08/2022 00:00:02      0.000     0.000     0.000    36.400
   09/08/2022 00:00:03      0.000     0.000     0.000    36.400
   09/08/2022 00:00:04      0.000     0.000     0.000    36.400
   09/08/2022 00:00:05      0.000     0.000     0.000    36.400
   09/08/2022 00:00:06      0.000     0.000     0.000    36.400
   09/08/2022 00:00:07      0.000     0.000     0.000    36.400
   09/08/2022 00:00:08      0.000     0.000     0.000    36.400
   09/08/2022 00:00:09      0.000     0.000     0.000    36.400
   09/08/2022 00:00:10      0.001     0.000     0.000    36.400
   09/08/2022 00:00:11      0.003     0.000     0.001    36.401
   09/08/2022 00:00:12      0.011     0.000     0.006    36.406
   09/08/2022 00:00:13      0.025     0.000     0.017    36.417
   09/08/2022 00:00:14      0.041     0.000     0.033    36.433
   09/08/2022 00:00:15      0.056     0.000     0.051    36.451
   09/08/2022 00:00:16      0.072     0.000     0.068    36.468
   09/08/2022 00:00:17      0.081     0.000     0.083    36.483
   09/08/2022 00:00:18      0.086     0.000     0.094    36.494
   09/08/2022 00:00:19      0.095     0.000     0.098    36.498
   09/08/2022 00:00:20      0.103     0.000     0.099    36.499
   09/08/2022 00:00:21      0.109     0.000     0.099    36.499
   09/08/2022 00:00:22      0.113     0.000     0.099    36.499
   09/08/2022 00:00:23      0.115     0.000     0.098    36.498
   09/08/2022 00:00:24      0.115     0.000     0.098    36.498
   09/08/2022 00:00:25      0.114     0.000     0.098    36.498
   09/08/2022 00:00:26      0.112     0.000     0.098    36.498
   09/08/2022 00:00:27      0.109     0.000     0.097    36.497
   09/08/2022 00:00:28      0.105     0.000     0.095    36.495
   09/08/2022 00:00:29      0.102     0.000     0.094    36.494
   09/08/2022 00:00:30      0.099     0.000     0.092    36.492
   09/08/2022 00:00:31      0.096     0.000     0.091    36.491
   09/08/2022 00:00:32      0.094     0.000     0.090    36.490
   09/08/2022 00:00:33      0.093     0.000     0.089    36.489
   09/08/2022 00:00:34      0.092     0.000     0.088    36.488
   09/08/2022 00:00:35      0.092     0.000     0.088    36.488
   09/08/2022 00:00:36      0.093     0.000     0.088    36.488
   09/08/2022 00:00:37      0.094     0.000     0.089    36.489
   09/08/2022 00:00:38      0.095     0.000     0.089    36.489
   09/08/2022 00:00:39      0.095     0.000     0.089    36.489
   09/08/2022 00:00:40      0.096     0.000     0.090    36.490
   09/08/2022 00:00:41      0.097     0.000     0.090    36.490
   09/08/2022 00:00:42      0.097     0.000     0.090    36.490
   09/08/2022 00:00:43      0.097     0.000     0.090    36.490
   09/08/2022 00:00:44      0.097     0.000     0.090    36.490
   09/08/2022 00:00:45      0.097     0.000     0.090    36.490
   09/08/2022 00:00:46      0.097     0.000     0.090    36.490
   09/08/2022 00:00:47      0.097     0.000     0.090    36.490
   09/08/2022 00:00:48      0.096     0.000     0.090    36.490
   09/08/2022 00:00:49      0.096     0.000     0.090    36.490
   09/08/2022 00:00:50      0.096     0.000     0.090    36.490
   09/08/2022 00:00:51      0.096     0.000     0.090    36.490
   09/08/2022 00:00:52      0.096     0.000     0.090    36.490
   09/08/2022 00:00:53      0.096     0.000     0.090    36.490
   09/08/2022 00:00:54      0.096     0.000     0.090    36.490
   09/08/2022 00:00:55      0.096     0.000     0.090    36.490
   09/08/2022 00:00:56      0.096     0.000     0.090    36.490
   09/08/2022 00:00:57      0.096     0.000     0.090    36.490
   09/08/2022 00:00:58      0.096     0.000     0.090    36.490
   09/08/2022 00:00:59      0.096     0.000     0.090    36.490
   09/08/2022 00:01:00      0.096     0.000     0.090    36.490
   09/08/2022 00:01:01      0.096     0.000     0.090    36.490
   09/08/2022 00:01:02      0.096     0.000     0.090    36.490
   09/08/2022 00:01:03      0.096     0.000     0.090    36.490
   09/08/2022 00:01:04      0.096     0.000     0.090    36.490
   09/08/2022 00:01:05      0.096     0.000     0.090    36.490
   09/08/2022 00:01:06      0.096     0.000     0.090    36.490
   09/08/2022 00:01:07      0.096     0.000     0.090    36.490
   09/08/2022 00:01:08      0.096     0.000     0.090    36.490
   09/08/2022 00:01:09      0.096     0.000     0.090    36.490
   09/08/2022 00:01:10      0.096     0.000     0.090    36.490
   09/08/2022 00:01:11      0.096     0.000     0.090    36.490
   09/08/2022 00:01:12      0.096     0.000     0.090    36.490
   09/08/2022 00:01:13      0.096     0.000     0.090    36.490
   09/08/2022 00:01:14      0.096     0.000     0.090    36.490
   09/08/2022 00:01:15      0.096     0.000     0.090    36.490
   09/08/2022 00:01:16      0.096     0.000     0.090    36.490
   09/08/2022 00:01:17      0.096     0.000     0.090    36.490
   09/08/2022 00:01:18      0.096     0.000     0.090    36.490
   09/08/2022 00:01:19      0.096     0.000     0.090    36.490
   09/08/2022 00:01:20      0.096     0.000     0.090    36.490
   09/08/2022 00:01:21      0.096     0.000     0.090    36.490
   09/08/2022 00:01:22      0.096     0.000     0.090    36.490
   09/08/2022 00:01:23      0.096     0.000     0.090    36.490
   09/08/2022 00:01:24      0.096     0.000     0.090    36.490
   09/08/2022 00:01:25      0.096     0.000     0.090    36.490
   09/08/2022 00:01:26      0.096     0.000     0.090    36.490
   09/08/2022 00:01:27      0.096     0.000     0.090    36.490
   09/08/2022 00:01:28      0.096     0.000     0.090    36.490
   09/08/2022 00:01:29      0.096     0.000     0.090    36.490
   09/08/2022 00:01:30      0.096     0.000     0.090    36.490
   09/08/2022 00:01:31      0.096     0.000     0.090    36.490
   09/08/2022 00:01:32      0.096     0.000     0.090    36.490
   09/08/2022 00:01:33      0.096     0.000     0.090    36.490
   09/08/2022 00:01:34      0.096     0.000     0.090    36.490
   09/08/2022 00:01:35      0.096     0.000     0.090    36.490
   09/08/2022 00:01:36      0.096     0.000     0.090    36.490
   09/08/2022 00:01:37      0.096     0.000     0.090    36.490
   09/08/2022 00:01:38      0.096     0.000     0.090    36.490
   09/08/2022 00:01:39      0.096     0.000     0.090    36.490
   09/08/2022 00:01:40      0.096     0.000     0.090    36.490
   09/08/2022 00:01:41      0.096     0.000     0.090    36.490
  
  
  <<< Node Inlet_3 >>>
  ----------------------------------------------------------------
                           Inflow  Flooding     Depth      Head
  Date        Time            CMS       CMS    meters    meters
  ----------------------------------------------------------------
   09/08/2022 00:00:01      0.000     0.000     0.000    34.500
   09/08/2022 00:00:02      0.000     0.000     0.000    34.500
   09/08/2022 00:00:03      0.000     0.000     0.000    34.500
   09/08/2022 00:00:04      0.000     0.000     0.000    34.500
   09/08/2022 00:00:05      0.000     0.000     0.000    34.500
   09/08/2022 00:00:06      0.000     0.000     0.000    34.500
   09/08/2022 00:00:07      0.000     0.000     0.000    34.500
   09/08/2022 00:00:08      0.000     0.000     0.000    34.500
   09/08/2022 00:00:09      0.000     0.000     0.000    34.500
   09/08/2022 00:00:10      0.000     0.000     0.000    34.500
   09/08/2022 00:00:11      0.000     0.000     0.000    34.500
   09/08/2022 00:00:12      0.000     0.000     0.000    34.500
   09/08/2022 00:00:13      0.002     0.000     0.001    34.501
   09/08/2022 00:00:14      0.006     0.000     0.004    34.504
   09/08/2022 00:00:15      0.014     0.000     0.010    34.510
   09/08/2022 00:00:16      0.027     0.000     0.019    34.519
   09/08/2022 00:00:17      0.046     0.000     0.033    34.533
   09/08/2022 00:00:18      0.069     0.000     0.050    34.550
   09/08/2022 00:00:19      0.092     0.000     0.070    34.570
   09/08/2022 00:00:20      0.105     0.000     0.091    34.591
   09/08/2022 00:00:21      0.110     0.000     0.111    34.611
   09/08/2022 00:00:22      0.115     0.000     0.128    34.628
   09/08/2022 00:00:23      0.115     0.000     0.142    34.642
   09/08/2022 00:00:24      0.115     0.000     0.153    34.653
   09/08/2022 00:00:25      0.115     0.000     0.161    34.661
   09/08/2022 00:00:26      0.114     0.000     0.166    34.666
   09/08/2022 00:00:27      0.114     0.000     0.169    34.669
   09/08/2022 00:00:28      0.114     0.000     0.171    34.671
   09/08/2022 00:00:29      0.114     0.000     0.171    34.671
   09/08/2022 00:00:30      0.114     0.000     0.170    34.670
   09/08/2022 00:00:31      0.114     0.000     0.168    34.668
   09/08/2022 00:00:32      0.113     0.000     0.165    34.665
   09/08/2022 00:00:33      0.112     0.000     0.162    34.662
   09/08/2022 00:00:34      0.110     0.000     0.159    34.659
   09/08/2022 00:00:35      0.108     0.000     0.155    34.655
   09/08/2022 00:00:36      0.106     0.000     0.152    34.652
   09/08/2022 00:00:37      0.105     0.000     0.148    34.648
   09/08/2022 00:00:38      0.105     0.000     0.145    34.645
   09/08/2022 00:00:39      0.104     0.000     0.142    34.642
   09/08/2022 00:00:40      0.104     0.000     0.140    34.640
   09/08/2022 00:00:41      0.104     0.000     0.138    34.638
   09/08/2022 00:00:42      0.104     0.000     0.136    34.636
   09/08/2022 00:00:43      0.103     0.000     0.135    34.635
   09/08/2022 00:00:44      0.103     0.000     0.134    34.634
   09/08/2022 00:00:45      0.103     0.000     0.134    34.634
   09/08/2022 00:00:46      0.102     0.000     0.133    34.633
   09/08/2022 00:00:47      0.101     0.000     0.133    34.633
   09/08/2022 00:00:48      0.101     0.000     0.132    34.632
   09/08/2022 00:00:49      0.100     0.000     0.132    34.632
   09/08/2022 00:00:50      0.100     0.000     0.132    34.632
   09/08/2022 00:00:51      0.099     0.000     0.131    34.631
   09/08/2022 00:00:52      0.099     0.000     0.131    34.631
   09/08/2022 00:00:53      0.099     0.000     0.131    34.631
   09/08/2022 00:00:54      0.100     0.000     0.131    34.631
   09/08/2022 00:00:55      0.100     0.000     0.131    34.631
   09/08/2022 00:00:56      0.100     0.000     0.132    34.632
   09/08/2022 00:00:57      0.101     0.000     0.132    34.632
   09/08/2022 00:00:58      0.101     0.000     0.132    34.632
   09/08/2022 00:00:59      0.101     0.000     0.133    34.633
   09/08/2022 00:01:00      0.101     0.000     0.133    34.633
   09/08/2022 00:01:01      0.101     0.000     0.133    34.633
   09/08/2022 00:01:02      0.101     0.000     0.134    34.634
   09/08/2022 00:01:03      0.101     0.000     0.134    34.634
   09/08/2022 00:01:04      0.101     0.000     0.134    34.634
   09/08/2022 00:01:05      0.101     0.000     0.134    34.634
   09/08/2022 00:01:06      0.101     0.000     0.134    34.634
   09/08/2022 00:01:07      0.101     0.000     0.134    34.634
   09/08/2022 00:01:08      0.101     0.000     0.134    34.634
   09/08/2022 00:01:09      0.101     0.000     0.134    34.634
   09/08/2022 00:01:10      0.101     0.000     0.134    34.634
   09/08/2022 00:01:11      0.101     0.000     0.134    34.634
   09/08/2022 00:01:12      0.101     0.000     0.133    34.633
   09/08/2022 00:01:13      0.101     0.000     0.133    34.633
   09/08/2022 00:01:14      0.101     0.000     0.133    34.633
   09/08/2022 00:01:15      0.101     0.000     0.133    34.633
   09/08/2022 00:01:16      0.101     0.000     0.133    34.633
   09/08/2022 00:01:17      0.101     0.000     0.133    34.633
   09/08/2022 00:01:18      0.101     0.000     0.133    34.633
   09/08/2022 00:01:19      0.101     0.000     0.133    34.633
   09/08/2022 00:01:20      0.101     0.000     0.133    34.633
   09/08/2022 00:01:21      0.101     0.000     0.133    34.633
   09/08/2022 00:01:22      0.101     0.000     0.133    34.633
   09/08/2022 00:01:23      0.101     0.000     0.133    34.633
   09/08/2022 00:01:24      0.101     0.000     0.133    34.633
   09/08/2022 00:01:25      0.101     0.000     0.133    34.633
   09/08/2022 00:01:26      0.101     0.000     0.133    34.633
   09/08/2022 00:01:27      0.101     0.000     0.133    34.633
   09/08/2022 00:01:28      0.101     0.000     0.133    34.633
   09/08/2022 00:01:29      0.101     0.000     0.133    34.633
   09/08/2022 00:01:30      0.101     0.000     0.133    34.633
   09/08/2022 00:01:31      0.101     0.000     0.133    34.633
   09/08/2022 00:01:32      0.101     0.000     0.133    34.633
   09/08/2022 00:01:33      0.101     0.000     0.133    34.633
   09/08/2022 00:01:34      0.101     0.000     0.133    34.633
   09/08/2022 00:01:35      0.101     0.000     0.133    34.633
   09/08/2022 00:01:36      0.101     0.000     0.133    34.633
   09/08/2022 00:01:37      0.101     0.000     0.133    34.633
   09/08/2022 00:01:38      0.101     0.000     0.133    34.633
   09/08/2022 00:01:39      0.101     0.000     0.133    34.633
   09/08/2022 00:01:40      0.101     0.000     0.133    34.633
   09/08/2022 00:01:41      0.101     0.000     0.133    34.633
  
  
  <<< Node Inlet_4 >>>
  ----------------------------------------------------------------
                           Inflow  Flooding     Depth      Head
  Date        Time            CMS       CMS    meters    meters
  ----------------------------------------------------------------
   09/08/2022 00:00:01      0.000     0.000     0.000    33.400
   09/08/2022 00:00:02      0.000     0.000     0.000    33.400
   09/08/2022 00:00:03      0.000     0.000     0.000    33.400
   09/08/2022 00:00:04      0.000     0.000     0.000    33.400
   09/08/2022 00:00:05      0.000     0.000     0.000    33.400
   09/08/2022 00:00:06      0.000     0.000     0.000    33.400
   09/08/2022 00:00:07      0.000     0.000     0.000    33.400
   09/08/2022 00:00:08      0.000     0.000     0.000    33.400
   09/08/2022 00:00:09      0.000     0.000     0.000    33.400
   09/08/2022 00:00:10      0.000     0.000     0.000    33.400
   09/08/2022 00:00:11      0.000     0.000     0.000    33.400
   09/08/2022 00:00:12      0.000     0.000     0.000    33.400
   09/08/2022 00:00:13      0.000     0.000     0.000    33.400
   09/08/2022 00:00:14      0.000     0.000     0.000    33.400
   09/08/2022 00:00:15      0.000     0.000     0.000    33.400
   09/08/2022 00:00:16      0.001     0.000     0.001    33.401
   09/08/2022 00:00:17      0.003     0.000     0.002    33.402
   09/08/2022 00:00:18      0.008     0.000     0.005    33.405
   09/08/2022 00:00:19      0.015     0.000     0.009    33.409
   09/08/2022 00:00:20      0.026     0.000     0.015    33.415
   09/08/2022 00:00:21      0.039     0.000     0.022    33.422
   09/08/2022 00:00:22      0.052     0.000     0.031    33.431
   09/08/2022 00:00:23      0.065     0.000     0.041    33.441
   09/08/2022 00:00:24      0.078     0.000     0.051    33.451
   09/08/2022 00:00:25      0.089     0.000     0.061    33.461
   09/08/2022 00:00:26      0.099     0.000     0.071    33.471
   09/08/2022 00:00:27      0.107     0.000     0.080    33.480
   09/08/2022 00:00:28      0.113     0.000     0.087    33.488
   09/08/2022 00:00:29      0.118     0.000     0.094    33.494
   09/08/2022 00:00:30      0.122     0.000     0.100    33.500
   09/08/2022 00:00:31      0.124     0.000     0.104    33.504
   09/08/2022 00:00:32      0.126     0.000     0.107    33.507
   09/08/2022 00:00:33      0.126     0.000     0.109    33.509
   09/08/2022 00:00:34      0.125     0.000     0.111    33.511
   09/08/2022 00:00:35      0.124     0.000     0.112    33.512
   09/08/2022 00:00:36      0.122     0.000     0.112    33.512
   09/08/2022 00:00:37      0.119     0.000     0.112    33.512
   09/08/2022 00:00:38      0.117     0.000     0.112    33.512
   09/08/2022 00:00:39      0.115     0.000     0.111    33.511
   09/08/2022 00:00:40      0.113     0.000     0.110    33.510
   09/08/2022 00:00:41      0.111     0.000     0.109    33.509
   09/08/2022 00:00:42      0.109     0.000     0.108    33.508
   09/08/2022 00:00:43      0.107     0.000     0.107    33.507
   09/08/2022 00:00:44      0.106     0.000     0.107    33.507
   09/08/2022 00:00:45      0.105     0.000     0.106    33.506
   09/08/2022 00:00:46      0.104     0.000     0.105    33.505
   09/08/2022 00:00:47      0.103     0.000     0.104    33.504
   09/08/2022 00:00:48      0.102     0.000     0.104    33.504
   09/08/2022 00:00:49      0.101     0.000     0.103    33.503
   09/08/2022 00:00:50      0.101     0.000     0.103    33.503
   09/08/2022 00:00:51      0.100     0.000     0.103    33.503
   09/08/2022 00:00:52      0.100     0.000     0.102    33.502
   09/08/2022 00:00:53      0.099     0.000     0.102    33.502
   09/08/2022 00:00:54      0.099     0.000     0.102    33.502
   09/08/2022 00:00:55      0.099     0.000     0.101    33.501
   09/08/2022 00:00:56      0.099     0.000     0.101    33.501
   09/08/2022 00:00:57      0.099     0.000     0.101    33.501
   09/08/2022 00:00:58      0.099     0.000     0.101    33.501
   09/08/2022 00:00:59      0.100     0.000     0.101    33.501
   09/08/2022 00:01:00      0.100     0.000     0.101    33.501
   09/08/2022 00:01:01      0.100     0.000     0.101    33.501
   09/08/2022 00:01:02      0.100     0.000     0.101    33.501
   09/08/2022 00:01:03      0.101     0.000     0.101    33.501
   09/08/2022 00:01:04      0.101     0.000     0.101    33.501
   09/08/2022 00:01:05      0.101     0.000     0.102    33.502
   09/08/2022 00:01:06      0.101     0.000     0.102    33.502
   09/08/2022 00:01:07      0.101     0.000     0.102    33.502
   09/08/2022 00:01:08      0.101     0.000     0.102    33.502
   09/08/2022 00:01:09      0.101     0.000     0.102    33.502
   09/08/2022 00:01:10      0.101     0.000     0.102    33.502
   09/08/2022 00:01:11      0.101     0.000     0.102    33.502
   09/08/2022 00:01:12      0.101     0.000     0.102    33.502
   09/08/2022 00:01:13      0.101     0.000     0.102    33.502
   09/08/2022 00:01:14      0.101     0.000     0.102    33.502
   09/08/2022 00:01:15      0.101     0.000     0.102    33.502
   09/08/2022 00:01:16      0.101     0.000     0.102    33.502
   09/08/2022 00:01:17      0.101     0.000     0.102    33.502
   09/08/2022 00:01:18      0.101     0.000     0.102    33.502
   09/08/2022 00:01:19      0.101     0.000     0.102    33.502
   09/08/2022 00:01:20      0.101     0.000     0.102    33.502
   09/08/2022 00:01:21      0.101     0.000     0.102    33.502
   09/08/2022 00:01:22      0.101     0.000     0.102    33.502
   09/08/2022 00:01:23      0.101     0.000     0.102    33.502
   09/08/2022 00:01:24      0.101     0.000     0.102    33.502
   09/08/2022 00:01:25      0.101     0.000     0.102    33.502
   09/08/2022 00:01:26      0.101     0.000     0.102    33.502
   09/08/2022 00:01:27      0.101     0.000     0.102    33.502
   09/08/2022 00:01:28      0.101     0.000     0.102    33.502
   09/08/2022 00:01:29      0.101     0.000     0.102    33.502
   09/08/2022 00:01:30      0.101     0.000     0.102    33.502
   09/08/2022 00:01:31      0.101     0.000     0.102    33.502
   09/08/2022 00:01:32      0.101     0.000     0.102    33.502
   09/08/2022 00:01:33      0.101     0.000     0.102    33.502
   09/08/2022 00:01:34      0.101     0.000     0.102    33.502
   09/08/2022 00:01:35      0.101     0.000     0.102    33.502
   09/08/2022 00:01:36      0.101     0.000     0.102    33.502
   09/08/2022 00:01:37      0.101     0.000     0.102    33.502
   09/08/2022 00:01:38      0.101     0.000     0.102    33.502
   09/08/2022 00:01:39      0.101     0.000     0.102    33.502
   09/08/2022 00:01:40      0.101     0.000     0.102    33.502
   09/08/2022 00:01:41      0.101     0.000     0.102    33.502
  
  
  <<< Node Outfall_1 >>>
  ----------------------------------------------------------------
                           Inflow  Flooding     Depth      Head
  Date        Time            CMS       CMS    meters    meters
  ----------------------------------------------------------------
   09/08/2022 00:00:01      0.000     0.000     0.000    31.000
   09/08/2022 00:00:02      0.000     0.000     0.000    31.000
   09/08/2022 00:00:03      0.000     0.000     0.000    31.000
   09/08/2022 00:00:04      0.000     0.000     0.000    31.000
   09/08/2022 00:00:05      0.000     0.000     0.000    31.000
   09/08/2022 00:00:06      0.000     0.000     0.000    31.000
   09/08/2022 00:00:07      0.000     0.000     0.000    31.000
   09/08/2022 00:00:08      0.000     0.000     0.000    31.000
   09/08/2022 00:00:09      0.000     0.000     0.000    31.000
   09/08/2022 00:00:10      0.000     0.000     0.000    31.000
   09/08/2022 00:00:11      0.000     0.000     0.000    31.000
   09/08/2022 00:00:12      0.000     0.000     0.000    31.000
   09/08/2022 00:00:13      0.000     0.000     0.000    31.000
   09/08/2022 00:00:14      0.000     0.000     0.000    31.000
   09/08/2022 00:00:15      0.000     0.000     0.000    31.000
   09/08/2022 00:00:16      0.000     0.000     0.000    31.000
   09/08/2022 00:00:17      0.000     0.000     0.002    31.002
   09/08/2022 00:00:18      0.000     0.000     0.005    31.005
   09/08/2022 00:00:19      0.001     0.000     0.009    31.009
   09/08/2022 00:00:20      0.001     0.000     0.014    31.014
   09/08/2022 00:00:21      0.003     0.000     0.019    31.019
   09/08/2022 00:00:22      0.007     0.000     0.027    31.027
   09/08/2022 00:00:23      0.012     0.000     0.036    31.036
   09/08/2022 00:00:24      0.019     0.000     0.045    31.045
   09/08/2022 00:00:25      0.029     0.000     0.055    31.055
   09/08/2022 00:00:26      0.041     0.000     0.065    31.065
   09/08/2022 00:00:27      0.053     0.000     0.074    31.074
   09/08/2022 00:00:28      0.066     0.000     0.082    31.082
   09/08/2022 00:00:29      0.078     0.000     0.089    31.089
   09/08/2022 00:00:30      0.089     0.000     0.095    31.095
   09/08/2022 00:00:31      0.099     0.000     0.100    31.100
   09/08/2022 00:00:32      0.107     0.000     0.104    31.104
   09/08/2022 00:00:33      0.113     0.000     0.107    31.107
   09/08/2022 00:00:34      0.117     0.000     0.109    31.109
   09/08/2022 00:00:35      0.120     0.000     0.111    31.111
   09/08/2022 00:00:36      0.122     0.000     0.112    31.112
   09/08/2022 00:00:37      0.122     0.000     0.112    31.112
   09/08/2022 00:00:38      0.122     0.000     0.112    31.112
   09/08/2022 00:00:39      0.121     0.000     0.111    31.111
   09/08/2022 00:00:40      0.119     0.000     0.110    31.110
   09/08/2022 00:00:41      0.117     0.000     0.109    31.109
   09/08/2022 00:00:42      0.115     0.000     0.109    31.109
   09/08/2022 00:00:43      0.114     0.000     0.108    31.108
   09/08/2022 00:00:44      0.112     0.000     0.107    31.107
   09/08/2022 00:00:45      0.110     0.000     0.106    31.106
   09/08/2022 00:00:46      0.109     0.000     0.105    31.105
   09/08/2022 00:00:47      0.107     0.000     0.105    31.105
   09/08/2022 00:00:48      0.106     0.000     0.104    31.104
   09/08/2022 00:00:49      0.105     0.000     0.103    31.103
   09/08/2022 00:00:50      0.104     0.000     0.103    31.103
   09/08/2022 00:00:51      0.103     0.000     0.102    31.102
   09/08/2022 00:00:52      0.102     0.000     0.102    31.102
   09/08/2022 00:00:53      0.101     0.000     0.102    31.102
   09/08/2022 00:00:54      0.101     0.000     0.101    31.101
   09/08/2022 00:00:55      0.100     0.000     0.101    31.101
   09/08/2022 00:00:56      0.100     0.000     0.101    31.101
   09/08/2022 00:00:57      0.100     0.000     0.101    31.101
   09/08/2022 00:00:58      0.100     0.000     0.101    31.101
   09/08/2022 00:00:59      0.099     0.000     0.101    31.101
   09/08/2022 00:01:00      0.100     0.000     0.101    31.101
   09/08/2022 00:01:01      0.100     0.000     0.101    31.101
   09/08/2022 00:01:02      0.100     0.000     0.101    31.101
   09/08/2022 00:01:03      0.100     0.000     0.101    31.101
   09/08/2022 00:01:04      0.100     0.000     0.101    31.101
   09/08/2022 00:01:05      0.100     0.000     0.101    31.101
   09/08/2022 00:01:06      0.101     0.000     0.101    31.101
   09/08/2022 00:01:07      0.101     0.000     0.101    31.101
   09/08/2022 00:01:08      0.101     0.000     0.101    31.101
   09/08/2022 00:01:09      0.101     0.000     0.101    31.101
   09/08/2022 00:01:10      0.101     0.000     0.101    31.101
   09/08/2022 00:01:11      0.101     0.000     0.101    31.101
   09/08/2022 00:01:12      0.101     0.000     0.101    31.101
   09/08/2022 00:01:13      0.101     0.000     0.101    31.101
   09/08/2022 00:01:14      0.101     0.000     0.101    31.101
   09/08/2022 00:01:15      0.101     0.000     0.101    31.101
   09/08/2022 00:01:16      0.101     0.000     0.101    31.101
   09/08/2022 00:01:17      0.101     0.000     0.101    31.101
   09/08/2022 00:01:18      0.101     0.000     0.101    31.101
   09/08/2022 00:01:19      0.101     0.000     0.101    31.101
   09/08/2022 00:01:20      0.101     0.000     0.101    31.101
   09/08/2022 00:01:21      0.101     0.000     0.101    31.101
   09/08/2022 00:01:22      0.101     0.000     0.101    31.101
   09/08/2022 00:01:23      0.101     0.000     0.101    31.101
   09/08/2022 00:01:24      0.101     0.000     0.101    31.101
   09/08/2022 00:01:25      0.101     0.000     0.101    31.101
   09/08/2022 00:01:26      0.101     0.000     0.101    31.101
   09/08/2022 00:01:27      0.101     0.000     0.101    31.101
   09/08/2022 00:01:28      0.101     0.000     0.101    31.101
   09/08/2022 00:01:29      0.101     0.000     0.101    31.101
   09/08/2022 00:01:30      0.101     0.000     0.101    31.101
   09/08/2022 00:01:31      0.101     0.000     0.101    31.101
   09/08/2022 00:01:32      0.101     0.000     0.101    31.101
   09/08/2022 00:01:33      0.101     0.000     0.101    31.101
   09/08/2022 00:01:34      0.101     0.000     0.101    31.101
   09/08/2022 00:01:35      0.101     0.000     0.101    31.101
   09/08/2022 00:01:36      0.101     0.000     0.101    31.101
   09/08/2022 00:01:37      0.101     0.000     0.101    31.101
   09/08/2022 00:01:38      0.101     0.000     0.101    31.101
   09/08/2022 00:01:39      0.101     0.000     0.101    31.101
   09/08/2022 00:01:40      0.101     0.000     0.101    31.101
   09/08/2022 00:01:41      0.101     0.000     0.101    31.101
  
  
  ************
  Link Results
  ************
  
  <<< Link Conduit_1 >>>
  ----------------------------------------------------------------
                             Flow  Velocity     Depth  Capacity/
  Date        Time            CMS     m/sec    meters   Setting 
  ----------------------------------------------------------------
   09/08/2022 00:00:01      0.000     0.000     0.000     0.000
   09/08/2022 00:00:02      0.000     0.000     0.000     0.000
   09/08/2022 00:00:03      0.000     0.000     0.000     0.000
   09/08/2022 00:00:04      0.000     0.000     0.000     0.000
   09/08/2022 00:00:05      0.000     0.000     0.000     0.000
   09/08/2022 00:00:06      0.000     0.000     0.000     0.000
   09/08/2022 00:00:07      0.000     0.000     0.000     0.000
   09/08/2022 00:00:08      0.000     0.000     0.000     0.000
   09/08/2022 00:00:09      0.000     0.000     0.001     0.001
   09/08/2022 00:00:10      0.001     2.117     0.005     0.003
   09/08/2022 00:00:11      0.003     2.607     0.014     0.012
   09/08/2022 00:00:12      0.011     3.232     0.026     0.031
   09/08/2022 00:00:13      0.025     3.657     0.042     0.061
   09/08/2022 00:00:14      0.041     3.851     0.057     0.095
   09/08/2022 00:00:15      0.055     3.986     0.068     0.125
   09/08/2022 00:00:16      0.068     4.138     0.077     0.148
   09/08/2022 00:00:17      0.070     3.852     0.083     0.164
   09/08/2022 00:00:18      0.067     3.439     0.087     0.176
   09/08/2022 00:00:19      0.068     3.368     0.090     0.183
   09/08/2022 00:00:20      0.069     3.366     0.091     0.187
   09/08/2022 00:00:21      0.070     3.404     0.091     0.187
   09/08/2022 00:00:22      0.071     3.464     0.090     0.186
   09/08/2022 00:00:23      0.071     3.488     0.090     0.185
   09/08/2022 00:00:24      0.071     3.486     0.090     0.185
   09/08/2022 00:00:25      0.071     3.488     0.090     0.185
   09/08/2022 00:00:26      0.071     3.504     0.090     0.184
   09/08/2022 00:00:27      0.071     3.531     0.089     0.183
   09/08/2022 00:00:28      0.071     3.568     0.089     0.180
   09/08/2022 00:00:29      0.071     3.609     0.088     0.178
   09/08/2022 00:00:30      0.071     3.650     0.087     0.176
   09/08/2022 00:00:31      0.071     3.688     0.086     0.174
   09/08/2022 00:00:32      0.071     3.720     0.086     0.173
   09/08/2022 00:00:33      0.071     3.745     0.085     0.171
   09/08/2022 00:00:34      0.071     3.762     0.085     0.171
   09/08/2022 00:00:35      0.071     3.768     0.085     0.170
   09/08/2022 00:00:36      0.071     3.765     0.085     0.170
   09/08/2022 00:00:37      0.071     3.756     0.085     0.171
   09/08/2022 00:00:38      0.071     3.743     0.085     0.171
   09/08/2022 00:00:39      0.071     3.730     0.086     0.172
   09/08/2022 00:00:40      0.071     3.718     0.086     0.173
   09/08/2022 00:00:41      0.071     3.709     0.086     0.173
   09/08/2022 00:00:42      0.071     3.701     0.086     0.173
   09/08/2022 00:00:43      0.071     3.697     0.086     0.174
   09/08/2022 00:00:44      0.071     3.695     0.086     0.174
   09/08/2022 00:00:45      0.071     3.696     0.086     0.174
   09/08/2022 00:00:46      0.071     3.698     0.086     0.174
   09/08/2022 00:00:47      0.071     3.701     0.086     0.173
   09/08/2022 00:00:48      0.071     3.705     0.086     0.173
   09/08/2022 00:00:49      0.071     3.708     0.086     0.173
   09/08/2022 00:00:50      0.071     3.710     0.086     0.173
   09/08/2022 00:00:51      0.071     3.712     0.086     0.173
   09/08/2022 00:00:52      0.071     3.713     0.086     0.173
   09/08/2022 00:00:53      0.071     3.713     0.086     0.173
   09/08/2022 00:00:54      0.071     3.712     0.086     0.173
   09/08/2022 00:00:55      0.071     3.711     0.086     0.173
   09/08/2022 00:00:56      0.071     3.711     0.086     0.173
   09/08/2022 00:00:57      0.071     3.710     0.086     0.173
   09/08/2022 00:00:58      0.071     3.709     0.086     0.173
   09/08/2022 00:00:59      0.071     3.708     0.086     0.173
   09/08/2022 00:01:00      0.071     3.708     0.086     0.173
   09/08/2022 00:01:01      0.071     3.708     0.086     0.173
   09/08/2022 00:01:02      0.071     3.708     0.086     0.173
   09/08/2022 00:01:03      0.071     3.708     0.086     0.173
   09/08/2022 00:01:04      0.071     3.709     0.086     0.173
   09/08/2022 00:01:05      0.071     3.709     0.086     0.173
   09/08/2022 00:01:06      0.071     3.709     0.086     0.173
   09/08/2022 00:01:07      0.071     3.709     0.086     0.173
   09/08/2022 00:01:08      0.071     3.709     0.086     0.173
   09/08/2022 00:01:09      0.071     3.709     0.086     0.173
   09/08/2022 00:01:10      0.071     3.709     0.086     0.173
   09/08/2022 00:01:11      0.071     3.709     0.086     0.173
   09/08/2022 00:01:12      0.071     3.709     0.086     0.173
   09/08/2022 00:01:13      0.071     3.709     0.086     0.173
   09/08/2022 00:01:14      0.071     3.709     0.086     0.173
   09/08/2022 00:01:15      0.071     3.709     0.086     0.173
   09/08/2022 00:01:16      0.071     3.709     0.086     0.173
   09/08/2022 00:01:17      0.071     3.709     0.086     0.173
   09/08/2022 00:01:18      0.071     3.709     0.086     0.173
   09/08/2022 00:01:19      0.071     3.709     0.086     0.173
   09/08/2022 00:01:20      0.071     3.709     0.086     0.173
   09/08/2022 00:01:21      0.071     3.709     0.086     0.173
   09/08/2022 00:01:22      0.071     3.709     0.086     0.173
   09/08/2022 00:01:23      0.071     3.709     0.086     0.173
   09/08/2022 00:01:24      0.071     3.709     0.086     0.173
   09/08/2022 00:01:25      0.071     3.709     0.086     0.173
   09/08/2022 00:01:26      0.071     3.709     0.086     0.173
   09/08/2022 00:01:27      0.071     3.709     0.086     0.173
   09/08/2022 00:01:28      0.071     3.709     0.086     0.173
   09/08/2022 00:01:29      0.071     3.709     0.086     0.173
   09/08/2022 00:01:30      0.071     3.709     0.086     0.173
   09/08/2022 00:01:31      0.071     3.709     0.086     0.173
   09/08/2022 00:01:32      0.071     3.709     0.086     0.173
   09/08/2022 00:01:33      0.071     3.709     0.086     0.173
   09/08/2022 00:01:34      0.071     3.709     0.086     0.173
   09/08/2022 00:01:35      0.071     3.709     0.086     0.173
   09/08/2022 00:01:36      0.071     3.709     0.086     0.173
   09/08/2022 00:01:37      0.071     3.709     0.086     0.173
   09/08/2022 00:01:38      0.071     3.709     0.086     0.173
   09/08/2022 00:01:39      0.071     3.709     0.086     0.173
   09/08/2022 00:01:40      0.071     3.709     0.086     0.173
   09/08/2022 00:01:41      0.071     3.709     0.086     0.173
  
  
  <<< Link Conduit_2 >>>
  ----------------------------------------------------------------
                             Flow  Velocity     Depth  Capacity/
  Date        Time            CMS     m/sec    meters   Setting 
  ----------------------------------------------------------------
   09/08/2022 00:00:01      0.000     0.000     0.000     0.000
   09/08/2022 00:00:02      0.000     0.000     0.000     0.000
   09/08/2022 00:00:03      0.000     0.000     0.000     0.000
   09/08/2022 00:00:04      0.000     0.000     0.000     0.000
   09/08/2022 00:00:05      0.000     0.000     0.000     0.000
   09/08/2022 00:00:06      0.000     0.000     0.000     0.000
   09/08/2022 00:00:07      0.000     0.000     0.000     0.000
   09/08/2022 00:00:08      0.000     0.000     0.000     0.000
   09/08/2022 00:00:09      0.000     0.000     0.000     0.000
   09/08/2022 00:00:10      0.000     0.000     0.000     0.000
   09/08/2022 00:00:11      0.000     0.000     0.000     0.000
   09/08/2022 00:00:12      0.000     0.000     0.003     0.001
   09/08/2022 00:00:13      0.002     2.745     0.008     0.005
   09/08/2022 00:00:14      0.006     3.224     0.017     0.016
   09/08/2022 00:00:15      0.014     3.615     0.029     0.036
   09/08/2022 00:00:16      0.027     3.783     0.044     0.065
   09/08/2022 00:00:17      0.046     4.245     0.058     0.099
   09/08/2022 00:00:18      0.069     4.687     0.072     0.134
   09/08/2022 00:00:19      0.092     4.962     0.084     0.168
   09/08/2022 00:00:20      0.105     4.735     0.095     0.201
   09/08/2022 00:00:21      0.110     4.317     0.106     0.231
   09/08/2022 00:00:22      0.115     4.039     0.114     0.257
   09/08/2022 00:00:23      0.115     3.741     0.121     0.278
   09/08/2022 00:00:24      0.115     3.515     0.126     0.295
   09/08/2022 00:00:25      0.115     3.372     0.130     0.308
   09/08/2022 00:00:26      0.114     3.270     0.132     0.315
   09/08/2022 00:00:27      0.112     3.184     0.133     0.318
   09/08/2022 00:00:28      0.109     3.107     0.133     0.318
   09/08/2022 00:00:29      0.106     3.040     0.132     0.315
   09/08/2022 00:00:30      0.103     2.985     0.131     0.311
   09/08/2022 00:00:31      0.100     2.946     0.129     0.306
   09/08/2022 00:00:32      0.097     2.925     0.128     0.300
   09/08/2022 00:00:33      0.095     2.921     0.126     0.294
   09/08/2022 00:00:34      0.093     2.939     0.124     0.288
   09/08/2022 00:00:35      0.093     2.978     0.122     0.281
   09/08/2022 00:00:36      0.092     3.036     0.120     0.276
   09/08/2022 00:00:37      0.093     3.106     0.118     0.270
   09/08/2022 00:00:38      0.093     3.183     0.117     0.266
   09/08/2022 00:00:39      0.094     3.257     0.116     0.262
   09/08/2022 00:00:40      0.095     3.324     0.115     0.259
   09/08/2022 00:00:41      0.096     3.381     0.114     0.257
   09/08/2022 00:00:42      0.097     3.427     0.113     0.255
   09/08/2022 00:00:43      0.097     3.463     0.113     0.253
   09/08/2022 00:00:44      0.097     3.489     0.112     0.252
   09/08/2022 00:00:45      0.097     3.506     0.112     0.251
   09/08/2022 00:00:46      0.097     3.516     0.112     0.250
   09/08/2022 00:00:47      0.097     3.521     0.112     0.249
   09/08/2022 00:00:48      0.097     3.525     0.111     0.248
   09/08/2022 00:00:49      0.096     3.527     0.111     0.248
   09/08/2022 00:00:50      0.096     3.529     0.111     0.247
   09/08/2022 00:00:51      0.096     3.530     0.111     0.247
   09/08/2022 00:00:52      0.096     3.532     0.111     0.246
   09/08/2022 00:00:53      0.096     3.532     0.110     0.246
   09/08/2022 00:00:54      0.096     3.531     0.111     0.246
   09/08/2022 00:00:55      0.096     3.528     0.111     0.247
   09/08/2022 00:00:56      0.096     3.524     0.111     0.247
   09/08/2022 00:00:57      0.096     3.518     0.111     0.248
   09/08/2022 00:00:58      0.096     3.511     0.111     0.248
   09/08/2022 00:00:59      0.096     3.504     0.111     0.249
   09/08/2022 00:01:00      0.096     3.497     0.112     0.249
   09/08/2022 00:01:01      0.096     3.490     0.112     0.250
   09/08/2022 00:01:02      0.096     3.485     0.112     0.250
   09/08/2022 00:01:03      0.096     3.481     0.112     0.251
   09/08/2022 00:01:04      0.096     3.478     0.112     0.251
   09/08/2022 00:01:05      0.096     3.477     0.112     0.251
   09/08/2022 00:01:06      0.096     3.476     0.112     0.251
   09/08/2022 00:01:07      0.096     3.477     0.112     0.251
   09/08/2022 00:01:08      0.096     3.478     0.112     0.251
   09/08/2022 00:01:09      0.096     3.480     0.112     0.250
   09/08/2022 00:01:10      0.096     3.482     0.112     0.250
   09/08/2022 00:01:11      0.096     3.484     0.112     0.250
   09/08/2022 00:01:12      0.096     3.485     0.112     0.250
   09/08/2022 00:01:13      0.096     3.487     0.112     0.250
   09/08/2022 00:01:14      0.096     3.488     0.112     0.250
   09/08/2022 00:01:15      0.096     3.488     0.112     0.250
   09/08/2022 00:01:16      0.096     3.489     0.112     0.250
   09/08/2022 00:01:17      0.096     3.489     0.112     0.250
   09/08/2022 00:01:18      0.096     3.489     0.112     0.250
   09/08/2022 00:01:19      0.096     3.488     0.112     0.250
   09/08/2022 00:01:20      0.096     3.488     0.112     0.250
   09/08/2022 00:01:21      0.096     3.488     0.112     0.250
   09/08/2022 00:01:22      0.096     3.487     0.112     0.250
   09/08/2022 00:01:23      0.096     3.487     0.112     0.250
   09/08/2022 00:01:24      0.096     3.487     0.112     0.250
   09/08/2022 00:01:25      0.096     3.486     0.112     0.250
   09/08/2022 00:01:26      0.096     3.486     0.112     0.250
   09/08/2022 00:01:27      0.096     3.486     0.112     0.250
   09/08/2022 00:01:28      0.096     3.486     0.112     0.250
   09/08/2022 00:01:29      0.096     3.486     0.112     0.250
   09/08/2022 00:01:30      0.096     3.487     0.112     0.250
   09/08/2022 00:01:31      0.096     3.487     0.112     0.250
   09/08/2022 00:01:32      0.096     3.487     0.112     0.250
   09/08/2022 00:01:33      0.096     3.487     0.112     0.250
   09/08/2022 00:01:34      0.096     3.487     0.112     0.250
   09/08/2022 00:01:35      0.096     3.487     0.112     0.250
   09/08/2022 00:01:36      0.096     3.487     0.112     0.250
   09/08/2022 00:01:37      0.096     3.488     0.112     0.250
   09/08/2022 00:01:38      0.096     3.488     0.112     0.250
   09/08/2022 00:01:39      0.096     3.488     0.112     0.250
   09/08/2022 00:01:40      0.096     3.488     0.112     0.250
   09/08/2022 00:01:41      0.096     3.488     0.112     0.250
  
  
  <<< Link Conduit_3 >>>
  ----------------------------------------------------------------
                             Flow  Velocity     Depth  Capacity/
  Date        Time            CMS     m/sec    meters   Setting 
  ----------------------------------------------------------------
   09/08/2022 00:00:01      0.000     0.000     0.000     0.000
   09/08/2022 00:00:02      0.000     0.000     0.000     0.000
   09/08/2022 00:00:03      0.000     0.000     0.000     0.000
   09/08/2022 00:00:04      0.000     0.000     0.000     0.000
   09/08/2022 00:00:05      0.000     0.000     0.000     0.000
   09/08/2022 00:00:06      0.000     0.000     0.000     0.000
   09/08/2022 00:00:07      0.000     0.000     0.000     0.000
   09/08/2022 00:00:08      0.000     0.000     0.000     0.000
   09/08/2022 00:00:09      0.000     0.000     0.000     0.000
   09/08/2022 00:00:10      0.000     0.000     0.000     0.000
   09/08/2022 00:00:11      0.000     0.000     0.000     0.000
   09/08/2022 00:00:12      0.000     0.000     0.000     0.000
   09/08/2022 00:00:13      0.000     0.000     0.000     0.000
   09/08/2022 00:00:14      0.000     0.000     0.001     0.001
   09/08/2022 00:00:15      0.000     1.284     0.005     0.002
   09/08/2022 00:00:16      0.001     1.521     0.010     0.007
   09/08/2022 00:00:17      0.003     1.864     0.017     0.016
   09/08/2022 00:00:18      0.008     2.214     0.027     0.032
   09/08/2022 00:00:19      0.015     2.493     0.039     0.055
   09/08/2022 00:00:20      0.026     2.737     0.053     0.085
   09/08/2022 00:00:21      0.039     2.897     0.067     0.121
   09/08/2022 00:00:22      0.052     3.009     0.080     0.156
   09/08/2022 00:00:23      0.065     3.099     0.092     0.191
   09/08/2022 00:00:24      0.078     3.172     0.103     0.222
   09/08/2022 00:00:25      0.089     3.232     0.111     0.249
   09/08/2022 00:00:26      0.099     3.280     0.119     0.272
   09/08/2022 00:00:27      0.107     3.320     0.125     0.291
   09/08/2022 00:00:28      0.113     3.355     0.129     0.306
   09/08/2022 00:00:29      0.118     3.386     0.133     0.316
   09/08/2022 00:00:30      0.122     3.414     0.135     0.323
   09/08/2022 00:00:31      0.124     3.439     0.136     0.327
   09/08/2022 00:00:32      0.126     3.460     0.136     0.329
   09/08/2022 00:00:33      0.126     3.477     0.136     0.328
   09/08/2022 00:00:34      0.125     3.490     0.135     0.324
   09/08/2022 00:00:35      0.124     3.500     0.134     0.320
   09/08/2022 00:00:36      0.122     3.505     0.132     0.314
   09/08/2022 00:00:37      0.119     3.507     0.130     0.308
   09/08/2022 00:00:38      0.117     3.506     0.128     0.302
   09/08/2022 00:00:39      0.115     3.502     0.126     0.297
   09/08/2022 00:00:40      0.113     3.497     0.125     0.291
   09/08/2022 00:00:41      0.111     3.489     0.123     0.287
   09/08/2022 00:00:42      0.109     3.481     0.122     0.283
   09/08/2022 00:00:43      0.107     3.472     0.121     0.280
   09/08/2022 00:00:44      0.106     3.462     0.120     0.277
   09/08/2022 00:00:45      0.105     3.453     0.120     0.275
   09/08/2022 00:00:46      0.104     3.444     0.119     0.273
   09/08/2022 00:00:47      0.103     3.436     0.119     0.271
   09/08/2022 00:00:48      0.102     3.429     0.118     0.270
   09/08/2022 00:00:49      0.101     3.422     0.118     0.268
   09/08/2022 00:00:50      0.101     3.416     0.117     0.267
   09/08/2022 00:00:51      0.100     3.410     0.117     0.266
   09/08/2022 00:00:52      0.100     3.405     0.117     0.265
   09/08/2022 00:00:53      0.099     3.401     0.116     0.265
   09/08/2022 00:00:54      0.099     3.398     0.116     0.264
   09/08/2022 00:00:55      0.099     3.396     0.116     0.264
   09/08/2022 00:00:56      0.099     3.394     0.116     0.264
   09/08/2022 00:00:57      0.099     3.393     0.116     0.265
   09/08/2022 00:00:58      0.099     3.393     0.117     0.265
   09/08/2022 00:00:59      0.100     3.393     0.117     0.266
   09/08/2022 00:01:00      0.100     3.394     0.117     0.267
   09/08/2022 00:01:01      0.100     3.395     0.117     0.267
   09/08/2022 00:01:02      0.100     3.396     0.117     0.268
   09/08/2022 00:01:03      0.101     3.397     0.118     0.268
   09/08/2022 00:01:04      0.101     3.399     0.118     0.269
   09/08/2022 00:01:05      0.101     3.399     0.118     0.269
   09/08/2022 00:01:06      0.101     3.400     0.118     0.269
   09/08/2022 00:01:07      0.101     3.401     0.118     0.269
   09/08/2022 00:01:08      0.101     3.401     0.118     0.269
   09/08/2022 00:01:09      0.101     3.402     0.118     0.269
   09/08/2022 00:01:10      0.101     3.402     0.118     0.269
   09/08/2022 00:01:11      0.101     3.402     0.118     0.269
   09/08/2022 00:01:12      0.101     3.402     0.118     0.268
   09/08/2022 00:01:13      0.101     3.402     0.118     0.268
   09/08/2022 00:01:14      0.101     3.401     0.118     0.268
   09/08/2022 00:01:15      0.101     3.401     0.118     0.268
   09/08/2022 00:01:16      0.101     3.401     0.118     0.268
   09/08/2022 00:01:17      0.101     3.401     0.118     0.268
   09/08/2022 00:01:18      0.101     3.401     0.118     0.268
   09/08/2022 00:01:19      0.101     3.401     0.118     0.268
   09/08/2022 00:01:20      0.101     3.401     0.118     0.268
   09/08/2022 00:01:21      0.101     3.401     0.118     0.268
   09/08/2022 00:01:22      0.101     3.401     0.118     0.268
   09/08/2022 00:01:23      0.101     3.401     0.118     0.268
   09/08/2022 00:01:24      0.101     3.401     0.118     0.268
   09/08/2022 00:01:25      0.101     3.401     0.118     0.268
   09/08/2022 00:01:26      0.101     3.401     0.118     0.268
   09/08/2022 00:01:27      0.101     3.401     0.118     0.268
   09/08/2022 00:01:28      0.101     3.401     0.118     0.268
   09/08/2022 00:01:29      0.101     3.401     0.118     0.268
   09/08/2022 00:01:30      0.101     3.401     0.118     0.268
   09/08/2022 00:01:31      0.101     3.401     0.118     0.268
   09/08/2022 00:01:32      0.101     3.401     0.118     0.268
   09/08/2022 00:01:33      0.101     3.401     0.118     0.268
   09/08/2022 00:01:34      0.101     3.401     0.118     0.268
   09/08/2022 00:01:35      0.101     3.401     0.118     0.268
   09/08/2022 00:01:36      0.101     3.401     0.118     0.268
   09/08/2022 00:01:37      0.101     3.401     0.118     0.268
   09/08/2022 00:01:38      0.101     3.401     0.118     0.268
   09/08/2022 00:01:39      0.101     3.401     0.118     0.268
   09/08/2022 00:01:40      0.101     3.401     0.118     0.268
   09/08/2022 00:01:41      0.101     3.401     0.118     0.268
  
  
  <<< Link Conduit_4 >>>
  ----------------------------------------------------------------
                             Flow  Velocity     Depth  Capacity/
  Date        Time            CMS     m/sec    meters   Setting 
  ----------------------------------------------------------------
   09/08/2022 00:00:01      0.000     0.000     0.000     0.000
   09/08/2022 00:00:02      0.000     0.000     0.000     0.000
   09/08/2022 00:00:03      0.000     0.000     0.000     0.000
   09/08/2022 00:00:04      0.000     0.000     0.000     0.000
   09/08/2022 00:00:05      0.000     0.000     0.000     0.000
   09/08/2022 00:00:06      0.000     0.000     0.000     0.000
   09/08/2022 00:00:07      0.000     0.000     0.000     0.000
   09/08/2022 00:00:08      0.000     0.000     0.000     0.000
   09/08/2022 00:00:09      0.000     0.000     0.000     0.000
   09/08/2022 00:00:10      0.000     0.000     0.000     0.000
   09/08/2022 00:00:11      0.000     0.000     0.000     0.000
   09/08/2022 00:00:12      0.000     0.000     0.000     0.000
   09/08/2022 00:00:13      0.000     0.000     0.000     0.000
   09/08/2022 00:00:14      0.000     0.000     0.000     0.000
   09/08/2022 00:00:15      0.000     0.000     0.000     0.000
   09/08/2022 00:00:16      0.000     0.000     0.000     0.000
   09/08/2022 00:00:17      0.000     0.000     0.002     0.001
   09/08/2022 00:00:18      0.000     0.700     0.005     0.002
   09/08/2022 00:00:19      0.001     0.939     0.009     0.005
   09/08/2022 00:00:20      0.001     1.124     0.013     0.008
   09/08/2022 00:00:21      0.003     1.413     0.019     0.014
   09/08/2022 00:00:22      0.007     1.712     0.027     0.024
   09/08/2022 00:00:23      0.012     2.007     0.036     0.037
   09/08/2022 00:00:24      0.019     2.292     0.046     0.053
   09/08/2022 00:00:25      0.029     2.576     0.056     0.071
   09/08/2022 00:00:26      0.041     2.837     0.065     0.090
   09/08/2022 00:00:27      0.053     3.068     0.074     0.109
   09/08/2022 00:00:28      0.066     3.270     0.083     0.126
   09/08/2022 00:00:29      0.078     3.442     0.090     0.142
   09/08/2022 00:00:30      0.089     3.581     0.096     0.156
   09/08/2022 00:00:31      0.099     3.697     0.101     0.168
   09/08/2022 00:00:32      0.107     3.788     0.105     0.177
   09/08/2022 00:00:33      0.113     3.858     0.108     0.184
   09/08/2022 00:00:34      0.117     3.906     0.110     0.189
   09/08/2022 00:00:35      0.120     3.938     0.111     0.192
   09/08/2022 00:00:36      0.122     3.956     0.112     0.194
   09/08/2022 00:00:37      0.122     3.963     0.112     0.194
   09/08/2022 00:00:38      0.122     3.960     0.112     0.194
   09/08/2022 00:00:39      0.121     3.950     0.111     0.192
   09/08/2022 00:00:40      0.119     3.935     0.110     0.190
   09/08/2022 00:00:41      0.117     3.918     0.110     0.188
   09/08/2022 00:00:42      0.115     3.899     0.109     0.186
   09/08/2022 00:00:43      0.114     3.881     0.108     0.184
   09/08/2022 00:00:44      0.112     3.863     0.107     0.182
   09/08/2022 00:00:45      0.110     3.847     0.106     0.180
   09/08/2022 00:00:46      0.109     3.831     0.105     0.178
   09/08/2022 00:00:47      0.107     3.816     0.105     0.177
   09/08/2022 00:00:48      0.106     3.802     0.104     0.175
   09/08/2022 00:00:49      0.105     3.790     0.104     0.174
   09/08/2022 00:00:50      0.104     3.780     0.103     0.173
   09/08/2022 00:00:51      0.103     3.770     0.103     0.172
   09/08/2022 00:00:52      0.102     3.761     0.102     0.171
   09/08/2022 00:00:53      0.101     3.754     0.102     0.170
   09/08/2022 00:00:54      0.101     3.747     0.102     0.169
   09/08/2022 00:00:55      0.100     3.742     0.101     0.169
   09/08/2022 00:00:56      0.100     3.738     0.101     0.168
   09/08/2022 00:00:57      0.100     3.735     0.101     0.168
   09/08/2022 00:00:58      0.100     3.733     0.101     0.168
   09/08/2022 00:00:59      0.099     3.732     0.101     0.168
   09/08/2022 00:01:00      0.100     3.732     0.101     0.168
   09/08/2022 00:01:01      0.100     3.733     0.101     0.168
   09/08/2022 00:01:02      0.100     3.735     0.101     0.168
   09/08/2022 00:01:03      0.100     3.737     0.101     0.168
   09/08/2022 00:01:04      0.100     3.739     0.101     0.168
   09/08/2022 00:01:05      0.100     3.741     0.101     0.169
   09/08/2022 00:01:06      0.101     3.743     0.101     0.169
   09/08/2022 00:01:07      0.101     3.744     0.101     0.169
   09/08/2022 00:01:08      0.101     3.746     0.102     0.169
   09/08/2022 00:01:09      0.101     3.747     0.102     0.169
   09/08/2022 00:01:10      0.101     3.747     0.102     0.169
   09/08/2022 00:01:11      0.101     3.748     0.102     0.169
   09/08/2022 00:01:12      0.101     3.748     0.102     0.169
   09/08/2022 00:01:13      0.101     3.748     0.102     0.169
   09/08/2022 00:01:14      0.101     3.747     0.102     0.169
   09/08/2022 00:01:15      0.101     3.747     0.102     0.169
   09/08/2022 00:01:16      0.101     3.747     0.102     0.169
   09/08/2022 00:01:17      0.101     3.746     0.102     0.169
   09/08/2022 00:01:18      0.101     3.746     0.102     0.169
   09/08/2022 00:01:19      0.101     3.746     0.102     0.169
   09/08/2022 00:01:20      0.101     3.746     0.102     0.169
   09/08/2022 00:01:21      0.101     3.746     0.102     0.169
   09/08/2022 00:01:22      0.101     3.745     0.102     0.169
   09/08/2022 00:01:23      0.101     3.746     0.102     0.169
   09/08/2022 00:01:24      0.101     3.746     0.102     0.169
   09/08/2022 00:01:25      0.101     3.746     0.102     0.169
   09/08/2022 00:01:26      0.101     3.746     0.102     0.169
   09/08/2022 00:01:27      0.101     3.746     0.102     0.169
   09/08/2022 00:01:28      0.101     3.746     0.102     0.169
   09/08/2022 00:01:29      0.101     3.746     0.102     0.169
   09/08/2022 00:01:30      0.101     3.746     0.102     0.169
   09/08/2022 00:01:31      0.101     3.746     0.102     0.169
   09/08/2022 00:01:32      0.101     3.746     0.102     0.169
   09/08/2022 00:01:33      0.101     3.746     0.102     0.169
   09/08/2022 00:01:34      0.101     3.746     0.102     0.169
   09/08/2022 00:01:35      0.101     3.746     0.102     0.169
   09/08/2022 00:01:36      0.101     3.746     0.102     0.169
   09/08/2022 00:01:37      0.101     3.746     0.102     0.169
   09/08/2022 00:01:38      0.101     3.746     0.102     0.169
   09/08/2022 00:01:39      0.101     3.746     0.102     0.169
   09/08/2022 00:01:40      0.101     3.746     0.102     0.169
   09/08/2022 00:01:41      0.101     3.746     0.102     0.169
  
  
  **************************        Volume        Volume
  Flow Routing Continuity        hectare-m      10^6 ltr
  **************************     ---------     ---------
  Dry Weather Inflow .......         0.000         0.000
  Wet Weather Inflow .......         0.000         0.000
  Groundwater Inflow .......         0.000         0.000
  RDII Inflow ..............         0.000         0.000
  External Inflow ..........         0.001         0.009
  External Outflow .........         0.001         0.008
  Flooding Loss ............         0.000         0.000
  Evaporation Loss .........         0.000         0.000
  Exfiltration Loss ........         0.000         0.000
  Initial Stored Volume ....         0.000         0.000
  Final Stored Volume ......         0.000         0.001
  Continuity Error (%) .....        -3.122
  
  
  *************************
  Highest Continuity Errors
  *************************
  Node Inlet_4 (6.35%)
  Node Inlet_3 (4.75%)
  Node Inlet_2 (2.19%)
  
  
  ***************************
  Time-Step Critical Elements
  ***************************
  None
  
  
  ********************************
  Highest Flow Instability Indexes
  ********************************
  Link Conduit_2 (8)
  Link Conduit_1 (3)
  Link Conduit_3 (3)
  Link Conduit_4 (3)
  
  
  *************************
  Routing Time Step Summary
  *************************
  Minimum Time Step           :     1.00 sec
  Average Time Step           :     1.00 sec
  Maximum Time Step           :     1.00 sec
  Percent in Steady State     :     0.00
  Average Iterations per Step :     2.17
  Percent Not Converging      :     0.00
  
  
  ******************
  Node Depth Summary
  ******************
  
  ---------------------------------------------------------------------------------
                                 Average  Maximum  Maximum  Time of Max    Reported
                                   Depth    Depth      HGL   Occurrence   Max Depth
  Node                 Type       Meters   Meters   Meters  days hr:min      Meters
  ---------------------------------------------------------------------------------
  Inlet_1              JUNCTION     0.07     0.09    37.59     0  00:00        0.09
  Inlet_2              JUNCTION     0.08     0.10    36.50     0  00:00        0.10
  Inlet_3              JUNCTION     0.11     0.17    34.67     0  00:00        0.17
  Inlet_4              JUNCTION     0.08     0.11    33.51     0  00:00        0.11
  Outfall_1            OUTFALL      0.08     0.11    31.11     0  00:00        0.11
  
  
  *******************
  Node Inflow Summary
  *******************
  
  -------------------------------------------------------------------------------------------------
                                  Maximum  Maximum                  Lateral       Total        Flow
                                  Lateral    Total  Time of Max      Inflow      Inflow     Balance
                                   Inflow   Inflow   Occurrence      Volume      Volume       Error
  Node                 Type           CMS      CMS  days hr:min    10^6 ltr    10^6 ltr     Percent
  -------------------------------------------------------------------------------------------------
  Inlet_1              JUNCTION     0.071    0.071     0  00:00     0.00631     0.00631       1.407
  Inlet_2              JUNCTION     0.044    0.115     0  00:00     0.00226     0.00848       2.242
  Inlet_3              JUNCTION     0.017    0.115     0  00:00     0.00044     0.00874       4.983
  Inlet_4              JUNCTION     0.000    0.126     0  00:00           0     0.00832       6.778
  Outfall_1            OUTFALL      0.000    0.123     0  00:00           0     0.00779       0.000
  
  
  **********************
  Node Surcharge Summary
  **********************
  
  No nodes were surcharged.
  
  
  *********************
  Node Flooding Summary
  *********************
  
  No nodes were flooded.
  
  
  ***********************
  Outfall Loading Summary
  ***********************
  
  -----------------------------------------------------------
                         Flow       Avg       Max       Total
                         Freq      Flow      Flow      Volume
  Outfall Node           Pcnt       CMS       CMS    10^6 ltr
  -----------------------------------------------------------
  Outfall_1             83.33     0.092     0.123       0.008
  -----------------------------------------------------------
  System                83.33     0.092     0.123       0.008
  
  
  ********************
  Link Flow Summary
  ********************
  
  -----------------------------------------------------------------------------
                                 Maximum  Time of Max   Maximum    Max/    Max/
                                  |Flow|   Occurrence   |Veloc|    Full    Full
  Link                 Type          CMS  days hr:min     m/sec    Flow   Depth
  -----------------------------------------------------------------------------
  Conduit_1            CONDUIT     0.074     0  00:00      4.22    0.11    0.24
  Conduit_2            CONDUIT     0.115     0  00:00      5.08    0.15    0.36
  Conduit_3            CONDUIT     0.126     0  00:00      3.51    0.26    0.36
  Conduit_4            CONDUIT     0.123     0  00:00      3.96    0.14    0.25
  
  
  ***************************
  Flow Classification Summary
  ***************************
  
  -------------------------------------------------------------------------------------
                      Adjusted    ---------- Fraction of Time in Flow Class ---------- 
                       /Actual         Up    Down  Sub   Sup   Up    Down  Norm  Inlet 
  Conduit               Length    Dry  Dry   Dry   Crit  Crit  Crit  Crit  Ltd   Ctrl  
  -------------------------------------------------------------------------------------
  Conduit_1               1.00   0.08  0.00  0.00  0.02  0.90  0.00  0.00  0.84  0.00
  Conduit_2               1.00   0.10  0.00  0.00  0.02  0.88  0.00  0.00  0.81  0.00
  Conduit_3               1.00   0.12  0.00  0.00  0.02  0.86  0.00  0.00  0.00  0.00
  Conduit_4               1.00   0.14  0.00  0.00  0.02  0.84  0.00  0.00  0.01  0.00
  
  
  *************************
  Conduit Surcharge Summary
  *************************
  
  No conduits were surcharged.
  

  Analysis begun on:  Fri Feb 17 09:26:40 2023
  Analysis ended on:  Fri Feb 17 09:29:19 2023
  Total elapsed time: 00:02:39