
  OWA STORM WATER MANAGEMENT MODEL - VERSION v5.1.14 (OWA 2022-07-31)
  --------------------------------------------------------------

  
  *********************************************************
  NOTE: The summary statistics displayed in this report are
  based on results found at every computational time step,  
  not just on results from each reporting time step.
  *********************************************************
  
  ****************
  Analysis Options
  ****************
  Flow Units ............... CMS
  Process Models:
    Rainfall/Runoff ........ NO
    RDII ................... NO
    Snowmelt ............... NO
    Groundwater ............ NO
    Flow Routing ........... YES
    Ponding Allowed ........ NO
    Water Quality .......... NO
  Flow Routing Method ...... DYNWAVE
  Surcharge Method ......... EXTRAN
  Starting Date ............ 01/01/1970 00:00:00
  Ending Date .............. 01/01/1970 00:20:00
  Antecedent Dry Days ...... 0.0
  Report Time Step ......... 00:01:00
  Routing Time Step ........ 1.00 sec
  Variable Time Step ....... NO
  Maximum Trials ........... 8
  Number of Threads ........ 1
  Head Tolerance ........... 0.001500 m
  
  
  ************
  Node Results
  ************
  
  <<< Node Inlet_1 >>>
  ----------------------------------------------------------------
                           Inflow  Flooding     Depth      Head
  Date        Time            CMS       CMS    meters    meters
  ----------------------------------------------------------------
   01/01/1970 00:01:00      0.177     0.000     0.131    37.631
   01/01/1970 00:02:00      0.177     0.000     0.131    37.631
  
  
  <<< Node Inlet_2 >>>
  ----------------------------------------------------------------
                           Inflow  Flooding     Depth      Head
  Date        Time            CMS       CMS    meters    meters
  ----------------------------------------------------------------
   01/01/1970 00:01:00      0.204     0.000     0.133    36.533
   01/01/1970 00:02:00      0.204     0.000     0.133    36.533
  
  
  <<< Node Inlet_3 >>>
  ----------------------------------------------------------------
                           Inflow  Flooding     Depth      Head
  Date        Time            CMS       CMS    meters    meters
  ----------------------------------------------------------------
   01/01/1970 00:01:00      0.222     0.000     0.225    34.725
   01/01/1970 00:02:00      0.222     0.000     0.225    34.725
  
  
  <<< Node Inlet_4 >>>
  ----------------------------------------------------------------
                           Inflow  Flooding     Depth      Head
  Date        Time            CMS       CMS    meters    meters
  ----------------------------------------------------------------
   01/01/1970 00:01:00      0.243     0.000     0.160    33.560
   01/01/1970 00:02:00      0.243     0.000     0.160    33.560
  
  
  <<< Node Outfall_1 >>>
  ----------------------------------------------------------------
                           Inflow  Flooding     Depth      Head
  Date        Time            CMS       CMS    meters    meters
  ----------------------------------------------------------------
   01/01/1970 00:01:00      0.244     0.000     0.160    31.160
   01/01/1970 00:02:00      0.243     0.000     0.159    31.159
  
  
  ************
  Link Results
  ************
  
  <<< Link Conduit_1 >>>
  ----------------------------------------------------------------
                             Flow  Velocity     Depth  Capacity/
  Date        Time            CMS     m/sec    meters   Setting 
  ----------------------------------------------------------------
   01/01/1970 00:01:00      0.177     5.123     0.132     0.314
   01/01/1970 00:02:00      0.177     5.123     0.132     0.314
  
  
  <<< Link Conduit_2 >>>
  ----------------------------------------------------------------
                             Flow  Velocity     Depth  Capacity/
  Date        Time            CMS     m/sec    meters   Setting 
  ----------------------------------------------------------------
 